(PID.TID 0000.0001) 
(PID.TID 0000.0001) // ======================================================
(PID.TID 0000.0001) //                      MITgcm UV
(PID.TID 0000.0001) //                      =========
(PID.TID 0000.0001) // ======================================================
(PID.TID 0000.0001) // execution environment starting up...
(PID.TID 0000.0001) 
(PID.TID 0000.0001) // MITgcmUV version:  checkpoint67h
(PID.TID 0000.0001) // Build user:        asinha5
(PID.TID 0000.0001) // Build host:        r133i0n0
(PID.TID 0000.0001) // Build date:        Wed Mar 24 14:35:40 PDT 2021
(PID.TID 0000.0001) 
(PID.TID 0000.0001) // =======================================================
(PID.TID 0000.0001) // Execution Environment parameter file "eedata"
(PID.TID 0000.0001) // =======================================================
(PID.TID 0000.0001) ># Example "eedata" file
(PID.TID 0000.0001) ># Lines beginning "#" are comments
(PID.TID 0000.0001) ># nTx - No. threads per process in X
(PID.TID 0000.0001) ># nTy - No. threads per process in Y
(PID.TID 0000.0001) > &EEPARMS
(PID.TID 0000.0001) > nTx=1,
(PID.TID 0000.0001) > nTy=1,
(PID.TID 0000.0001) ># debugMode=.TRUE.,
(PID.TID 0000.0001) > /
(PID.TID 0000.0001) ># Note: Some systems use & as the
(PID.TID 0000.0001) ># namelist terminator. Other systems
(PID.TID 0000.0001) ># use a / character (as shown here).
(PID.TID 0000.0001) 
(PID.TID 0000.0001) // =======================================================
(PID.TID 0000.0001) // Computational Grid Specification ( see files "SIZE.h" )
(PID.TID 0000.0001) //                                  ( and "eedata"       )
(PID.TID 0000.0001) // =======================================================
(PID.TID 0000.0001)      nPx = 5385 ; /* No. processes in X */
(PID.TID 0000.0001)      nPy =    1 ; /* No. processes in Y */
(PID.TID 0000.0001)      nSx =    1 ; /* No. tiles in X per process */
(PID.TID 0000.0001)      nSy =    1 ; /* No. tiles in Y per process */
(PID.TID 0000.0001)      sNx =   20 ; /* Tile size in X */
(PID.TID 0000.0001)      sNy =   20 ; /* Tile size in Y */
(PID.TID 0000.0001)      OLx =    4 ; /* Tile overlap distance in X */
(PID.TID 0000.0001)      OLy =    4 ; /* Tile overlap distance in Y */
(PID.TID 0000.0001)      nTx =    1 ; /* No. threads in X per process */
(PID.TID 0000.0001)      nTy =    1 ; /* No. threads in Y per process */
(PID.TID 0000.0001)       Nr =  100 ; /* No. levels in the vertical   */
(PID.TID 0000.0001)       Nx =***** ; /* Total domain size in X ( = nPx*nSx*sNx ) */
(PID.TID 0000.0001)       Ny =   20 ; /* Total domain size in Y ( = nPy*nSy*sNy ) */
(PID.TID 0000.0001)   nTiles =    1 ; /* Total no. tiles per process ( = nSx*nSy ) */
(PID.TID 0000.0001)   nProcs = 5385 ; /* Total no. processes ( = nPx*nPy ) */
(PID.TID 0000.0001) nThreads =    1 ; /* Total no. threads per process ( = nTx*nTy ) */
(PID.TID 0000.0001) usingMPI =    T ; /* Flag used to control whether MPI is in use */
(PID.TID 0000.0001)                   /*  note: To execute a program with MPI calls */
(PID.TID 0000.0001)                   /*  it must be launched appropriately e.g     */
(PID.TID 0000.0001)                   /*  "mpirun -np 64 ......"                    */
(PID.TID 0000.0001) useCoupler=    F ;/* Flag used to control communications with   */
(PID.TID 0000.0001)                   /*  other model components, through a coupler */
(PID.TID 0000.0001) useNest2W_parent =    F ;/* Control 2-W Nesting comm */
(PID.TID 0000.0001) useNest2W_child  =    F ;/* Control 2-W Nesting comm */
(PID.TID 0000.0001) debugMode =    F ; /* print debug msg. (sequence of S/R calls)  */
(PID.TID 0000.0001) printMapIncludesZeros=    F ; /* print zeros in Std.Output maps */
(PID.TID 0000.0001) maxLengthPrt1D=   65 /* maxLength of 1D array printed to StdOut */
(PID.TID 0000.0001) 
(PID.TID 0000.0001) ======= Starting MPI parallel Run =========
(PID.TID 0000.0001)  My Processor Name (len:  8 ) = r133i0n0
(PID.TID 0000.0001)  Located at (  0,  0) on processor grid (0:***,0:  0)
(PID.TID 0000.0001)  Origin at  (     1,     1) on global grid (1:107700,1:    20)
(PID.TID 0000.0001)  North neighbor = processor 0000
(PID.TID 0000.0001)  South neighbor = processor 0000
(PID.TID 0000.0001)   East neighbor = processor 0001
(PID.TID 0000.0001)   West neighbor = processor 5384
(PID.TID 0000.0001) // ======================================================
(PID.TID 0000.0001) // Mapping of tiles to threads
(PID.TID 0000.0001) // ======================================================
(PID.TID 0000.0001) // -o- Thread   1, tiles (   1:   1,   1:   1)
(PID.TID 0000.0001) 
(PID.TID 0000.0001) W2_READPARMS: opening data.exch2
(PID.TID 0000.0001)  OPEN_COPY_DATA_FILE: opening file data.exch2
(PID.TID 0000.0001) // =======================================================
(PID.TID 0000.0001) // Parameter file "data.exch2"
(PID.TID 0000.0001) // =======================================================
(PID.TID 0000.0001) ># EXCH2 Package: Wrapper-2 User Choice
(PID.TID 0000.0001) >#--------------------
(PID.TID 0000.0001) >#  preDefTopol   :: pre-defined Topology selector:
(PID.TID 0000.0001) >#                :: = 0 : topology defined from processing "data.exch2";
(PID.TID 0000.0001) >#                :: = 1 : simple, single facet topology;
(PID.TID 0000.0001) >#                :: = 2 : customized topology (w2_set_myown_facets)
(PID.TID 0000.0001) >#                :: = 3 : 6-facet Cube (3 face-dims: nRed, nGreen, nBlue).
(PID.TID 0000.0001) >#  dimsFacets    :: facet pair of dimensions (n1x,n1y, n2x,n2y ...)
(PID.TID 0000.0001) >#  facetEdgeLink :: Face-Edge connectivity map:
(PID.TID 0000.0001) >#    facetEdgeLink(i,j)=XX.1 : face(j)-edge(i) (i=1,2,3,4 <==> N,S,E,W)
(PID.TID 0000.0001) >#    is connected to Northern edge of face "XX" ; similarly,
(PID.TID 0000.0001) >#    = XX.2 : to Southern.E, XX.3 = Eastern.E, XX.4 = Western.E of face "XX"
(PID.TID 0000.0001) >#  blankList     :: List of "blank" tiles
(PID.TID 0000.0001) >#  W2_mapIO      :: global map IO selector (-1 = old type ; 0 = 1 long line in X
(PID.TID 0000.0001) >#                :: 1 = compact, mostly in Y dir)
(PID.TID 0000.0001) >#  W2_printMsg   :: option for information messages printing
(PID.TID 0000.0001) >#                :: <0 : write to log file ; =0 : minimum print ;
(PID.TID 0000.0001) >#                :: =1 : no duplicated print ; =2 : all processes do print
(PID.TID 0000.0001) >#--------------------
(PID.TID 0000.0001) > &W2_EXCH2_PARM01
(PID.TID 0000.0001) >  W2_printMsg= 0,
(PID.TID 0000.0001) >  W2_mapIO   = 1,
(PID.TID 0000.0001) >#
(PID.TID 0000.0001) >#-- 5 facets llc_270 topology (drop facet 6 and its connection):
(PID.TID 0000.0001) >  preDefTopol = 1,
(PID.TID 0000.0001) >  dimsFacets = 2960, 800,
(PID.TID 0000.0001) >  blankList =
(PID.TID 0000.0001) >     1,
(PID.TID 0000.0001) >   149,
(PID.TID 0000.0001) >   297,
(PID.TID 0000.0001) >   445,
(PID.TID 0000.0001) >   593,
(PID.TID 0000.0001) >   741,
(PID.TID 0000.0001) >  1777,
(PID.TID 0000.0001) >  1925,
(PID.TID 0000.0001) >  2073,
(PID.TID 0000.0001) >  2221,
(PID.TID 0000.0001) >  2369,
(PID.TID 0000.0001) >  2517,
(PID.TID 0000.0001) >  2665,
(PID.TID 0000.0001) >  2813,
(PID.TID 0000.0001) >  2961,
(PID.TID 0000.0001) >  3109,
(PID.TID 0000.0001) >  3257,
(PID.TID 0000.0001) >  3405,
(PID.TID 0000.0001) >  3553,
(PID.TID 0000.0001) >  3701,
(PID.TID 0000.0001) >  3849,
(PID.TID 0000.0001) >  3997,
(PID.TID 0000.0001) >  4145,
(PID.TID 0000.0001) >  4293,
(PID.TID 0000.0001) >  4441,
(PID.TID 0000.0001) >  4589,
(PID.TID 0000.0001) >  4737,
(PID.TID 0000.0001) >  4885,
(PID.TID 0000.0001) >  5033,
(PID.TID 0000.0001) >  5181,
(PID.TID 0000.0001) >  5329,
(PID.TID 0000.0001) >  5477,
(PID.TID 0000.0001) >  5625,
(PID.TID 0000.0001) >  5773,
(PID.TID 0000.0001) >     2,
(PID.TID 0000.0001) >   150,
(PID.TID 0000.0001) >   298,
(PID.TID 0000.0001) >  1926,
(PID.TID 0000.0001) >  2074,
(PID.TID 0000.0001) >  2222,
(PID.TID 0000.0001) >  2370,
(PID.TID 0000.0001) >  2518,
(PID.TID 0000.0001) >  2666,
(PID.TID 0000.0001) >  2814,
(PID.TID 0000.0001) >  2962,
(PID.TID 0000.0001) >  3110,
(PID.TID 0000.0001) >  3258,
(PID.TID 0000.0001) >  3406,
(PID.TID 0000.0001) >  3554,
(PID.TID 0000.0001) >  3702,
(PID.TID 0000.0001) >  3850,
(PID.TID 0000.0001) >  3998,
(PID.TID 0000.0001) >  4146,
(PID.TID 0000.0001) >  4294,
(PID.TID 0000.0001) >  4442,
(PID.TID 0000.0001) >  4590,
(PID.TID 0000.0001) >  4738,
(PID.TID 0000.0001) >  4886,
(PID.TID 0000.0001) >  5034,
(PID.TID 0000.0001) >  5182,
(PID.TID 0000.0001) >  5330,
(PID.TID 0000.0001) >  5478,
(PID.TID 0000.0001) >  5626,
(PID.TID 0000.0001) >  5774,
(PID.TID 0000.0001) >  2075,
(PID.TID 0000.0001) >  2223,
(PID.TID 0000.0001) >  2371,
(PID.TID 0000.0001) >  2519,
(PID.TID 0000.0001) >  2667,
(PID.TID 0000.0001) >  2815,
(PID.TID 0000.0001) >  2963,
(PID.TID 0000.0001) >  3111,
(PID.TID 0000.0001) >  3259,
(PID.TID 0000.0001) >  3407,
(PID.TID 0000.0001) >  3555,
(PID.TID 0000.0001) >  3703,
(PID.TID 0000.0001) >  3851,
(PID.TID 0000.0001) >  3999,
(PID.TID 0000.0001) >  4147,
(PID.TID 0000.0001) >  4295,
(PID.TID 0000.0001) >  4443,
(PID.TID 0000.0001) >  4591,
(PID.TID 0000.0001) >  4739,
(PID.TID 0000.0001) >  4887,
(PID.TID 0000.0001) >  5035,
(PID.TID 0000.0001) >  5183,
(PID.TID 0000.0001) >  5331,
(PID.TID 0000.0001) >  5479,
(PID.TID 0000.0001) >  5627,
(PID.TID 0000.0001) >  5775,
(PID.TID 0000.0001) >  2224,
(PID.TID 0000.0001) >  2372,
(PID.TID 0000.0001) >  2520,
(PID.TID 0000.0001) >  2668,
(PID.TID 0000.0001) >  2816,
(PID.TID 0000.0001) >  2964,
(PID.TID 0000.0001) >  3112,
(PID.TID 0000.0001) >  3260,
(PID.TID 0000.0001) >  3408,
(PID.TID 0000.0001) >  3556,
(PID.TID 0000.0001) >  3704,
(PID.TID 0000.0001) >  3852,
(PID.TID 0000.0001) >  4000,
(PID.TID 0000.0001) >  4148,
(PID.TID 0000.0001) >  4296,
(PID.TID 0000.0001) >  4444,
(PID.TID 0000.0001) >  4592,
(PID.TID 0000.0001) >  4740,
(PID.TID 0000.0001) >  4888,
(PID.TID 0000.0001) >  5036,
(PID.TID 0000.0001) >  5184,
(PID.TID 0000.0001) >  5332,
(PID.TID 0000.0001) >  5480,
(PID.TID 0000.0001) >  5628,
(PID.TID 0000.0001) >  5776,
(PID.TID 0000.0001) >  2373,
(PID.TID 0000.0001) >  2521,
(PID.TID 0000.0001) >  2669,
(PID.TID 0000.0001) >  2817,
(PID.TID 0000.0001) >  2965,
(PID.TID 0000.0001) >  3113,
(PID.TID 0000.0001) >  3261,
(PID.TID 0000.0001) >  3409,
(PID.TID 0000.0001) >  3557,
(PID.TID 0000.0001) >  3705,
(PID.TID 0000.0001) >  3853,
(PID.TID 0000.0001) >  4001,
(PID.TID 0000.0001) >  4149,
(PID.TID 0000.0001) >  4297,
(PID.TID 0000.0001) >  4445,
(PID.TID 0000.0001) >  4593,
(PID.TID 0000.0001) >  4741,
(PID.TID 0000.0001) >  4889,
(PID.TID 0000.0001) >  5037,
(PID.TID 0000.0001) >  5185,
(PID.TID 0000.0001) >  5333,
(PID.TID 0000.0001) >  5481,
(PID.TID 0000.0001) >  5629,
(PID.TID 0000.0001) >  5777,
(PID.TID 0000.0001) >  2522,
(PID.TID 0000.0001) >  2670,
(PID.TID 0000.0001) >  2818,
(PID.TID 0000.0001) >  2966,
(PID.TID 0000.0001) >  3114,
(PID.TID 0000.0001) >  3262,
(PID.TID 0000.0001) >  3410,
(PID.TID 0000.0001) >  3558,
(PID.TID 0000.0001) >  3706,
(PID.TID 0000.0001) >  3854,
(PID.TID 0000.0001) >  4002,
(PID.TID 0000.0001) >  4150,
(PID.TID 0000.0001) >  4298,
(PID.TID 0000.0001) >  4446,
(PID.TID 0000.0001) >  4594,
(PID.TID 0000.0001) >  4742,
(PID.TID 0000.0001) >  4890,
(PID.TID 0000.0001) >  5038,
(PID.TID 0000.0001) >  5186,
(PID.TID 0000.0001) >  5334,
(PID.TID 0000.0001) >  5482,
(PID.TID 0000.0001) >  5630,
(PID.TID 0000.0001) >  5778,
(PID.TID 0000.0001) >  2523,
(PID.TID 0000.0001) >  2671,
(PID.TID 0000.0001) >  2819,
(PID.TID 0000.0001) >  2967,
(PID.TID 0000.0001) >  3115,
(PID.TID 0000.0001) >  3263,
(PID.TID 0000.0001) >  3411,
(PID.TID 0000.0001) >  3559,
(PID.TID 0000.0001) >  3707,
(PID.TID 0000.0001) >  3855,
(PID.TID 0000.0001) >  4003,
(PID.TID 0000.0001) >  4151,
(PID.TID 0000.0001) >  4299,
(PID.TID 0000.0001) >  4447,
(PID.TID 0000.0001) >  4595,
(PID.TID 0000.0001) >  4743,
(PID.TID 0000.0001) >  4891,
(PID.TID 0000.0001) >  5039,
(PID.TID 0000.0001) >  5187,
(PID.TID 0000.0001) >  5335,
(PID.TID 0000.0001) >  5483,
(PID.TID 0000.0001) >  5631,
(PID.TID 0000.0001) >  5779,
(PID.TID 0000.0001) >  2820,
(PID.TID 0000.0001) >  2968,
(PID.TID 0000.0001) >  3116,
(PID.TID 0000.0001) >  3264,
(PID.TID 0000.0001) >  3412,
(PID.TID 0000.0001) >  3560,
(PID.TID 0000.0001) >  3708,
(PID.TID 0000.0001) >  3856,
(PID.TID 0000.0001) >  4004,
(PID.TID 0000.0001) >  4152,
(PID.TID 0000.0001) >  4300,
(PID.TID 0000.0001) >  4448,
(PID.TID 0000.0001) >  4596,
(PID.TID 0000.0001) >  4744,
(PID.TID 0000.0001) >  4892,
(PID.TID 0000.0001) >  5040,
(PID.TID 0000.0001) >  5188,
(PID.TID 0000.0001) >  5336,
(PID.TID 0000.0001) >  5484,
(PID.TID 0000.0001) >  5632,
(PID.TID 0000.0001) >  5780,
(PID.TID 0000.0001) >  2821,
(PID.TID 0000.0001) >  2969,
(PID.TID 0000.0001) >  3117,
(PID.TID 0000.0001) >  3265,
(PID.TID 0000.0001) >  3413,
(PID.TID 0000.0001) >  3561,
(PID.TID 0000.0001) >  3709,
(PID.TID 0000.0001) >  3857,
(PID.TID 0000.0001) >  4005,
(PID.TID 0000.0001) >  4153,
(PID.TID 0000.0001) >  4301,
(PID.TID 0000.0001) >  4449,
(PID.TID 0000.0001) >  4597,
(PID.TID 0000.0001) >  4745,
(PID.TID 0000.0001) >  4893,
(PID.TID 0000.0001) >  5041,
(PID.TID 0000.0001) >  5189,
(PID.TID 0000.0001) >  5337,
(PID.TID 0000.0001) >  5485,
(PID.TID 0000.0001) >  5633,
(PID.TID 0000.0001) >  5781,
(PID.TID 0000.0001) >  2822,
(PID.TID 0000.0001) >  2970,
(PID.TID 0000.0001) >  3118,
(PID.TID 0000.0001) >  3266,
(PID.TID 0000.0001) >  3414,
(PID.TID 0000.0001) >  3710,
(PID.TID 0000.0001) >  4302,
(PID.TID 0000.0001) >  4450,
(PID.TID 0000.0001) >  4598,
(PID.TID 0000.0001) >  4746,
(PID.TID 0000.0001) >  4894,
(PID.TID 0000.0001) >  5042,
(PID.TID 0000.0001) >  5190,
(PID.TID 0000.0001) >  5338,
(PID.TID 0000.0001) >  5486,
(PID.TID 0000.0001) >  5634,
(PID.TID 0000.0001) >  5782,
(PID.TID 0000.0001) >  2971,
(PID.TID 0000.0001) >  3119,
(PID.TID 0000.0001) >  3267,
(PID.TID 0000.0001) >  3415,
(PID.TID 0000.0001) >  4451,
(PID.TID 0000.0001) >  4599,
(PID.TID 0000.0001) >  4747,
(PID.TID 0000.0001) >  4895,
(PID.TID 0000.0001) >  5043,
(PID.TID 0000.0001) >  5191,
(PID.TID 0000.0001) >  5339,
(PID.TID 0000.0001) >  5487,
(PID.TID 0000.0001) >  5635,
(PID.TID 0000.0001) >  5783,
(PID.TID 0000.0001) >  4008,
(PID.TID 0000.0001) >  4156,
(PID.TID 0000.0001) >  4304,
(PID.TID 0000.0001) >  4452,
(PID.TID 0000.0001) >  4600,
(PID.TID 0000.0001) >  4748,
(PID.TID 0000.0001) >  4896,
(PID.TID 0000.0001) >  5044,
(PID.TID 0000.0001) >  5192,
(PID.TID 0000.0001) >  5340,
(PID.TID 0000.0001) >  5488,
(PID.TID 0000.0001) >  5636,
(PID.TID 0000.0001) >  5784,
(PID.TID 0000.0001) >  4453,
(PID.TID 0000.0001) >  4601,
(PID.TID 0000.0001) >  4749,
(PID.TID 0000.0001) >  4897,
(PID.TID 0000.0001) >  5045,
(PID.TID 0000.0001) >  5193,
(PID.TID 0000.0001) >  5341,
(PID.TID 0000.0001) >  5489,
(PID.TID 0000.0001) >  5637,
(PID.TID 0000.0001) >  5785,
(PID.TID 0000.0001) >  4454,
(PID.TID 0000.0001) >  4602,
(PID.TID 0000.0001) >  4750,
(PID.TID 0000.0001) >  4898,
(PID.TID 0000.0001) >  5046,
(PID.TID 0000.0001) >  5194,
(PID.TID 0000.0001) >  5342,
(PID.TID 0000.0001) >  5490,
(PID.TID 0000.0001) >  5638,
(PID.TID 0000.0001) >  5786,
(PID.TID 0000.0001) >  5047,
(PID.TID 0000.0001) >  5195,
(PID.TID 0000.0001) >  5343,
(PID.TID 0000.0001) >  5491,
(PID.TID 0000.0001) >  5639,
(PID.TID 0000.0001) >  5787,
(PID.TID 0000.0001) >  5196,
(PID.TID 0000.0001) >  5344,
(PID.TID 0000.0001) >  5492,
(PID.TID 0000.0001) >  5640,
(PID.TID 0000.0001) >  5788,
(PID.TID 0000.0001) >  5197,
(PID.TID 0000.0001) >  5345,
(PID.TID 0000.0001) >  5493,
(PID.TID 0000.0001) >  5641,
(PID.TID 0000.0001) >  5789,
(PID.TID 0000.0001) >  5198,
(PID.TID 0000.0001) >  5346,
(PID.TID 0000.0001) >  5494,
(PID.TID 0000.0001) >  5642,
(PID.TID 0000.0001) >  5790,
(PID.TID 0000.0001) >  5199,
(PID.TID 0000.0001) >  5347,
(PID.TID 0000.0001) >  5495,
(PID.TID 0000.0001) >  5643,
(PID.TID 0000.0001) >  5791,
(PID.TID 0000.0001) >  5348,
(PID.TID 0000.0001) >  5496,
(PID.TID 0000.0001) >  5644,
(PID.TID 0000.0001) >  5792,
(PID.TID 0000.0001) >  5349,
(PID.TID 0000.0001) >  5645,
(PID.TID 0000.0001) >  5793,
(PID.TID 0000.0001) >   135,
(PID.TID 0000.0001) >   283,
(PID.TID 0000.0001) >   136,
(PID.TID 0000.0001) >   284,
(PID.TID 0000.0001) >   137,
(PID.TID 0000.0001) >   285,
(PID.TID 0000.0001) >   433,
(PID.TID 0000.0001) >   138,
(PID.TID 0000.0001) >   286,
(PID.TID 0000.0001) >   434,
(PID.TID 0000.0001) >   139,
(PID.TID 0000.0001) >   287,
(PID.TID 0000.0001) >   435,
(PID.TID 0000.0001) >   583,
(PID.TID 0000.0001) >   140,
(PID.TID 0000.0001) >   288,
(PID.TID 0000.0001) >   436,
(PID.TID 0000.0001) >   584,
(PID.TID 0000.0001) >   732,
(PID.TID 0000.0001) >   141,
(PID.TID 0000.0001) >   289,
(PID.TID 0000.0001) >   437,
(PID.TID 0000.0001) >   585,
(PID.TID 0000.0001) >   733,
(PID.TID 0000.0001) >   881,
(PID.TID 0000.0001) >   142,
(PID.TID 0000.0001) >   290,
(PID.TID 0000.0001) >   438,
(PID.TID 0000.0001) >   586,
(PID.TID 0000.0001) >   734,
(PID.TID 0000.0001) >   882,
(PID.TID 0000.0001) >  1030,
(PID.TID 0000.0001) >  1178,
(PID.TID 0000.0001) >  1326,
(PID.TID 0000.0001) >  1474,
(PID.TID 0000.0001) >  1622,
(PID.TID 0000.0001) >  1770,
(PID.TID 0000.0001) >   143,
(PID.TID 0000.0001) >   291,
(PID.TID 0000.0001) >   439,
(PID.TID 0000.0001) >   587,
(PID.TID 0000.0001) >   735,
(PID.TID 0000.0001) >   883,
(PID.TID 0000.0001) >  1031,
(PID.TID 0000.0001) >  1179,
(PID.TID 0000.0001) >  1327,
(PID.TID 0000.0001) >  1475,
(PID.TID 0000.0001) >  1623,
(PID.TID 0000.0001) >  1771,
(PID.TID 0000.0001) >  1919,
(PID.TID 0000.0001) >  2067,
(PID.TID 0000.0001) >  4287,
(PID.TID 0000.0001) >  4435,
(PID.TID 0000.0001) >  4583,
(PID.TID 0000.0001) >  5767,
(PID.TID 0000.0001) >   144,
(PID.TID 0000.0001) >   292,
(PID.TID 0000.0001) >   440,
(PID.TID 0000.0001) >   588,
(PID.TID 0000.0001) >   736,
(PID.TID 0000.0001) >   884,
(PID.TID 0000.0001) >  1032,
(PID.TID 0000.0001) >  1180,
(PID.TID 0000.0001) >  1328,
(PID.TID 0000.0001) >  1476,
(PID.TID 0000.0001) >  1624,
(PID.TID 0000.0001) >  1772,
(PID.TID 0000.0001) >  1920,
(PID.TID 0000.0001) >  2068,
(PID.TID 0000.0001) >  2216,
(PID.TID 0000.0001) >  3844,
(PID.TID 0000.0001) >  3992,
(PID.TID 0000.0001) >  4140,
(PID.TID 0000.0001) >  4288,
(PID.TID 0000.0001) >  4436,
(PID.TID 0000.0001) >  4584,
(PID.TID 0000.0001) >  4732,
(PID.TID 0000.0001) >  4880,
(PID.TID 0000.0001) >  5028,
(PID.TID 0000.0001) >  5176,
(PID.TID 0000.0001) >  5324,
(PID.TID 0000.0001) >  5472,
(PID.TID 0000.0001) >  5620,
(PID.TID 0000.0001) >  5768,
(PID.TID 0000.0001) >   145,
(PID.TID 0000.0001) >   293,
(PID.TID 0000.0001) >   441,
(PID.TID 0000.0001) >   589,
(PID.TID 0000.0001) >   737,
(PID.TID 0000.0001) >   885,
(PID.TID 0000.0001) >  1033,
(PID.TID 0000.0001) >  1181,
(PID.TID 0000.0001) >  1329,
(PID.TID 0000.0001) >  1477,
(PID.TID 0000.0001) >  1625,
(PID.TID 0000.0001) >  1773,
(PID.TID 0000.0001) >  1921,
(PID.TID 0000.0001) >  2069,
(PID.TID 0000.0001) >  2217,
(PID.TID 0000.0001) >  3845,
(PID.TID 0000.0001) >  3993,
(PID.TID 0000.0001) >  4141,
(PID.TID 0000.0001) >  4289,
(PID.TID 0000.0001) >  4437,
(PID.TID 0000.0001) >  4585,
(PID.TID 0000.0001) >  4733,
(PID.TID 0000.0001) >  4881,
(PID.TID 0000.0001) >  5029,
(PID.TID 0000.0001) >  5177,
(PID.TID 0000.0001) >  5325,
(PID.TID 0000.0001) >  5473,
(PID.TID 0000.0001) >  5621,
(PID.TID 0000.0001) >  5769,
(PID.TID 0000.0001) >  5917,
(PID.TID 0000.0001) >   146,
(PID.TID 0000.0001) >   294,
(PID.TID 0000.0001) >   442,
(PID.TID 0000.0001) >   590,
(PID.TID 0000.0001) >   738,
(PID.TID 0000.0001) >   886,
(PID.TID 0000.0001) >  1034,
(PID.TID 0000.0001) >  1182,
(PID.TID 0000.0001) >  1330,
(PID.TID 0000.0001) >  1478,
(PID.TID 0000.0001) >  1626,
(PID.TID 0000.0001) >  1774,
(PID.TID 0000.0001) >  1922,
(PID.TID 0000.0001) >  2070,
(PID.TID 0000.0001) >  2218,
(PID.TID 0000.0001) >  2366,
(PID.TID 0000.0001) >  3846,
(PID.TID 0000.0001) >  3994,
(PID.TID 0000.0001) >  4142,
(PID.TID 0000.0001) >  4290,
(PID.TID 0000.0001) >  4438,
(PID.TID 0000.0001) >  4586,
(PID.TID 0000.0001) >  4734,
(PID.TID 0000.0001) >  4882,
(PID.TID 0000.0001) >  5030,
(PID.TID 0000.0001) >  5178,
(PID.TID 0000.0001) >  5326,
(PID.TID 0000.0001) >  5474,
(PID.TID 0000.0001) >  5622,
(PID.TID 0000.0001) >  5770,
(PID.TID 0000.0001) >  5918,
(PID.TID 0000.0001) >   147,
(PID.TID 0000.0001) >   295,
(PID.TID 0000.0001) >   443,
(PID.TID 0000.0001) >   591,
(PID.TID 0000.0001) >   739,
(PID.TID 0000.0001) >   887,
(PID.TID 0000.0001) >  1035,
(PID.TID 0000.0001) >  1183,
(PID.TID 0000.0001) >  1331,
(PID.TID 0000.0001) >  1479,
(PID.TID 0000.0001) >  1627,
(PID.TID 0000.0001) >  1775,
(PID.TID 0000.0001) >  1923,
(PID.TID 0000.0001) >  2071,
(PID.TID 0000.0001) >  2219,
(PID.TID 0000.0001) >  2367,
(PID.TID 0000.0001) >  2515,
(PID.TID 0000.0001) >  3847,
(PID.TID 0000.0001) >  3995,
(PID.TID 0000.0001) >  4143,
(PID.TID 0000.0001) >  4291,
(PID.TID 0000.0001) >  4439,
(PID.TID 0000.0001) >  4587,
(PID.TID 0000.0001) >  4735,
(PID.TID 0000.0001) >  4883,
(PID.TID 0000.0001) >  5031,
(PID.TID 0000.0001) >  5179,
(PID.TID 0000.0001) >  5327,
(PID.TID 0000.0001) >  5475,
(PID.TID 0000.0001) >  5623,
(PID.TID 0000.0001) >  5771,
(PID.TID 0000.0001) >  5919,
(PID.TID 0000.0001) >   148,
(PID.TID 0000.0001) >   296,
(PID.TID 0000.0001) >   444,
(PID.TID 0000.0001) >   592,
(PID.TID 0000.0001) >   740,
(PID.TID 0000.0001) >   888,
(PID.TID 0000.0001) >  1036,
(PID.TID 0000.0001) >  1184,
(PID.TID 0000.0001) >  1332,
(PID.TID 0000.0001) >  1480,
(PID.TID 0000.0001) >  1628,
(PID.TID 0000.0001) >  1776,
(PID.TID 0000.0001) >  1924,
(PID.TID 0000.0001) >  2072,
(PID.TID 0000.0001) >  2220,
(PID.TID 0000.0001) >  2368,
(PID.TID 0000.0001) >  2516,
(PID.TID 0000.0001) >  2664,
(PID.TID 0000.0001) >  3700,
(PID.TID 0000.0001) >  3848,
(PID.TID 0000.0001) >  3996,
(PID.TID 0000.0001) >  4144,
(PID.TID 0000.0001) >  4292,
(PID.TID 0000.0001) >  4440,
(PID.TID 0000.0001) >  4588,
(PID.TID 0000.0001) >  4736,
(PID.TID 0000.0001) >  4884,
(PID.TID 0000.0001) >  5032,
(PID.TID 0000.0001) >  5180,
(PID.TID 0000.0001) >  5328,
(PID.TID 0000.0001) >  5476,
(PID.TID 0000.0001) >  5624,
(PID.TID 0000.0001) >  5772,
(PID.TID 0000.0001) >  5920,
(PID.TID 0000.0001) > &
(PID.TID 0000.0001) 
(PID.TID 0000.0001) W2_READPARMS: finished reading data.exch2
(PID.TID 0000.0001) W2_useE2ioLayOut=    T ;/* T: use Exch2 glob IO map; F: use model default */
(PID.TID 0000.0001) W2_mapIO        =   1 ; /* select option for Exch2 global-IO map */
(PID.TID 0000.0001) W2_printMsg     =   0 ; /* select option for printing information */
(PID.TID 0000.0001) ===== Start setting W2 TOPOLOGY:
(PID.TID 0000.0001) W2_E2SETUP: number of Active Tiles =    5385
(PID.TID 0000.0001) W2_E2SETUP: number of Blank Tiles  =     535
(PID.TID 0000.0001) W2_E2SETUP: Total number of Tiles  =    5920
(PID.TID 0000.0001) W2_SET_SINGLE_FACET: preDefTopol=  1 selected
(PID.TID 0000.0001) W2_E2SETUP: Total number of Facets =       1
(PID.TID 0000.0001) W2_SET_F2F_INDEX: index matrix for connected Facet-Edges:
(PID.TID 0000.0001) W2_SET_MAP_TILES: tile mapping within facet and global Map:
(PID.TID 0000.0001)  W2_mapIO = 2960 (=  148*sNx)
(PID.TID 0000.0001)  Global Map (IO): X-size=    2960 , Y-size=     800
(PID.TID 0000.0001) W2_SET_MAP_TILES: tile offset within facet and global Map:
- facet  1 : X-size=  2960 , Y-size=   800 ; 5920 tiles (Tx,Ty= 148,  40)
(PID.TID 0000.0001) W2_SET_MAP_CUMSUM: setting Facet Matrix for CUMUL-SUM
 Facet Matrix for CUMUL-SUM (nFacets=   1, nActive=   1 ):
- facet  1 :  0  0 ,
(PID.TID 0000.0001) W2_SET_MAP_CUMSUM: done (skip Tile Matrix setting)
(PID.TID 0000.0001) W2_SET_TILE2TILES: tile neighbours and index connection:
(PID.TID 0000.0001) current Max.Nb.Neighbours (e.g., on tile   22 ) =  4
(PID.TID 0000.0001) ===== W2 TILE TOPOLOGY =====
(PID.TID 0000.0001)  TILE:     3 (bi,bj=   1   1 ), Nb of Neighbours =  2
(PID.TID 0000.0001)     NEIGHBOUR  1 = TILE  151 (n=  2) Comm = MSG (PROC=  133)
(PID.TID 0000.0001)     NEIGHBOUR  2 = TILE    4 (n=  3) Comm = MSG (PROC=    2)
(PID.TID 0000.0001) =====       setting W2 TOPOLOGY: Done
(PID.TID 0000.0001) 
(PID.TID 0000.0001)  INI_PARMS: opening model parameter file "data"
(PID.TID 0000.0001)  OPEN_COPY_DATA_FILE: opening file data
(PID.TID 0000.0001) // =======================================================
(PID.TID 0000.0001) // Parameter file "data"
(PID.TID 0000.0001) // =======================================================
(PID.TID 0000.0001) >### Data file with primary model parameters -----------------------------------
(PID.TID 0000.0001) >#
(PID.TID 0000.0001) >### Continuous equation parameters --------------------------------------------
(PID.TID 0000.0001) > &PARM01
(PID.TID 0000.0001) >## Reference temperatures and salinities for every vertical level.
(PID.TID 0000.0001) > tRef =  18.89, 18.89, 18.89, 18.89, 18.89, 18.87, 18.85, 18.82,
(PID.TID 0000.0001) >         18.80, 18.73, 18.63, 18.49, 18.28, 18.08, 17.86, 17.63,
(PID.TID 0000.0001) >         17.40, 17.18, 16.95, 16.73, 16.52, 16.31, 16.10, 15.89,
(PID.TID 0000.0001) >         15.69, 15.49, 15.28, 15.08, 14.88, 14.67, 14.47, 14.25,
(PID.TID 0000.0001) >         14.03, 13.80, 13.55, 13.29, 13.01, 12.73, 12.42, 12.11,
(PID.TID 0000.0001) >         11.78, 11.43, 11.07, 10.70, 10.31,  9.93,  9.53,  9.11,
(PID.TID 0000.0001) >          8.71,  8.29,  7.89,  7.51,  7.13,  6.78,  6.44,  6.11,
(PID.TID 0000.0001) >          5.81,  5.51,  5.23,  4.97,  4.73,  4.51,  4.30,  4.11,
(PID.TID 0000.0001) >          3.94,  3.78,  3.63,  3.50,  3.38,  3.25,  3.14,  3.04,
(PID.TID 0000.0001) >          2.94,  2.83,  2.74,  2.64,  2.54,  2.45,  2.36,  2.27,
(PID.TID 0000.0001) >          2.19,  2.10,  2.03,  1.95,  1.86,  1.78,  1.70,  1.63,
(PID.TID 0000.0001) >          1.55,  1.48,  1.41,  1.34,  1.27,  1.20,  1.13,  1.06,
(PID.TID 0000.0001) >          1.00,  0.96,  0.93,  0.91,
(PID.TID 0000.0001) > sRef =  34.84, 34.84, 34.84, 34.84, 34.84, 34.84, 34.85, 34.85,
(PID.TID 0000.0001) >         34.85, 34.86, 34.87, 34.88, 34.90, 34.91, 34.93, 34.95,
(PID.TID 0000.0001) >         34.96, 34.98, 34.99, 35.00, 35.01, 35.02, 35.03, 35.04,
(PID.TID 0000.0001) >         35.05, 35.06, 35.07, 35.07, 35.07, 35.07, 35.07, 35.07,
(PID.TID 0000.0001) >         35.07, 35.06, 35.05, 35.04, 35.03, 35.02, 35.01, 34.99,
(PID.TID 0000.0001) >         34.97, 34.95, 34.92, 34.90, 34.87, 34.84, 34.81, 34.78,
(PID.TID 0000.0001) >         34.75, 34.72, 34.69, 34.67, 34.65, 34.62, 34.61, 34.60,
(PID.TID 0000.0001) >         34.59, 34.59, 34.58, 34.59, 34.59, 34.60, 34.60, 34.61,
(PID.TID 0000.0001) >         34.62, 34.63, 34.64, 34.65, 34.66, 34.67, 34.67, 34.68,
(PID.TID 0000.0001) >         34.69, 34.70, 34.71, 34.71, 34.72, 34.72, 34.73, 34.73,
(PID.TID 0000.0001) >         34.73, 34.74, 34.74, 34.74, 34.74, 34.75, 34.74, 34.74,
(PID.TID 0000.0001) >         34.74, 34.74, 34.74, 34.74, 34.74, 34.74, 34.73, 34.73,
(PID.TID 0000.0001) >         34.73, 34.73, 34.73, 34.73,
(PID.TID 0000.0001) > rhonil        = 1029.,
(PID.TID 0000.0001) > rhoConstFresh = 1000.,
(PID.TID 0000.0001) > eosType = 'JMD95Z',
(PID.TID 0000.0001) >#
(PID.TID 0000.0001) >## Various prescriptions for viscosity and diffusivity.
(PID.TID 0000.0001) > viscAr     = 5.e-04,
(PID.TID 0000.0001) > viscA4Grid = 0.0,
(PID.TID 0000.0001) > diffKhT    = 0.E0,
(PID.TID 0000.0001) > diffKhS    = 0.E0,
(PID.TID 0000.0001) > diffK4T    = 0.E10,
(PID.TID 0000.0001) > diffK4S    = 0.E10,
(PID.TID 0000.0001) > diffKrT    = 1.0e-5,
(PID.TID 0000.0001) > diffKrS    = 1.0e-5,
(PID.TID 0000.0001) > bottomDragQuadratic = 0.002,
(PID.TID 0000.0001) > no_slip_sides     = .TRUE.,
(PID.TID 0000.0001) > no_slip_bottom    = .TRUE.,
(PID.TID 0000.0001) > implicitDiffusion = .TRUE.,
(PID.TID 0000.0001) > implicitViscosity = .TRUE.,
(PID.TID 0000.0001) ># horizontal momentum closure
(PID.TID 0000.0001) > viscC4Leith   = 2.0,
(PID.TID 0000.0001) > viscC4Leithd  = 2.0,
(PID.TID 0000.0001) > viscA4GridMax = 0.8,
(PID.TID 0000.0001) >#
(PID.TID 0000.0001) >## Parameters that control numerical methods like advection schemes and
(PID.TID 0000.0001) >#  treatment of the free-surface.
(PID.TID 0000.0001) > tempAdvScheme = 7,
(PID.TID 0000.0001) > saltAdvScheme = 7,
(PID.TID 0000.0001) > implicitFreeSurface     = .TRUE.,
(PID.TID 0000.0001) > staggerTimeStep         = .TRUE.,
(PID.TID 0000.0001) > exactConserv            = .TRUE.,
(PID.TID 0000.0001) > vectorInvariantMomentum = .TRUE.,
(PID.TID 0000.0001) > useAreaViscLength       = .TRUE.,
(PID.TID 0000.0001) > highOrderVorticity      = .TRUE.,
(PID.TID 0000.0001) > multiDimAdvection       = .TRUE.,
(PID.TID 0000.0001) >#
(PID.TID 0000.0001) >## These parameters seem to be associated with the external forcing.
(PID.TID 0000.0001) > convertFW2Salt = -1.,
(PID.TID 0000.0001) > temp_EvPrRn    =  0.,
(PID.TID 0000.0001) > useRealFreshWaterFlux = .FALSE.,
(PID.TID 0000.0001) > allowFreezing         = .FALSE.,
(PID.TID 0000.0001) >#
(PID.TID 0000.0001) >## Parameters associated with bathymetry specification.
(PID.TID 0000.0001) > hFacMin   = 0.2,
(PID.TID 0000.0001) > hFacMinDr = 5.,
(PID.TID 0000.0001) >#
(PID.TID 0000.0001) >## Parameters for reading, writing, and misc numerical details.
(PID.TID 0000.0001) > globalFiles     = .TRUE.,
(PID.TID 0000.0001) > useSingleCpuIO  = .TRUE.,
(PID.TID 0000.0001) > readBinaryPrec  = 32,
(PID.TID 0000.0001) > writeBinaryPrec = 32,
(PID.TID 0000.0001) > debuglevel      = 1,
(PID.TID 0000.0001) >#
(PID.TID 0000.0001) >## Unused parameters.
(PID.TID 0000.0001) ># gravity = 9.81,
(PID.TID 0000.0001) ># viscA4Grid = 2.0E-3,
(PID.TID 0000.0001) ># viscAhGrid = 2.5E-4,
(PID.TID 0000.0001) ># bottomDraglinear    = 1.E-3,
(PID.TID 0000.0001) ># Note: nonlinFreeSurf=1 with rStar=0 breaks the code.
(PID.TID 0000.0001) ># nonlinFreeSurf = 4,
(PID.TID 0000.0001) ># select_rStar   = 1,
(PID.TID 0000.0001) ># hFacInf   = 0.1,
(PID.TID 0000.0001) ># hFacSup   = 5.,
(PID.TID 0000.0001) ># implicSurfPress = 0.6,
(PID.TID 0000.0001) ># implicDiv2DFlow = 0.6,
(PID.TID 0000.0001) ># useSingleCpuInput = .TRUE.,
(PID.TID 0000.0001) ># set to eccov4, make sure minbathy=20m first
(PID.TID 0000.0001) ># debuglevel = -1,
(PID.TID 0000.0001) ># useJamartWetPoints = .TRUE.,
(PID.TID 0000.0001) ># writeBinaryPrec=64,
(PID.TID 0000.0001) > /
(PID.TID 0000.0001) >### Elliptic solver parameters ------------------------------------------------
(PID.TID 0000.0001) > &PARM02
(PID.TID 0000.0001) > cg2dMaxIters       = 1000,
(PID.TID 0000.0001) ># cg2dTargetResidual = 1.E-8,
(PID.TID 0000.0001) > cg2dTargetResWunit = 1e-18,
(PID.TID 0000.0001) >#
(PID.TID 0000.0001) >#cg2dMaxIters       = 100,
(PID.TID 0000.0001) >#cg2dTargetResidual = 1.E-5,
(PID.TID 0000.0001) > &
(PID.TID 0000.0001) >### Time stepping parameters --------------------------------------------------
(PID.TID 0000.0001) > &PARM03
(PID.TID 0000.0001) > deltaT      =   80.,
(PID.TID 0000.0001) > nIter0      =0015811200,
(PID.TID 0000.0001) > nTimeSteps  =  2160,
(PID.TID 0000.0001) > pChkptFreq  = 864000.,
(PID.TID 0000.0001) > monitorFreq =   3600.,
(PID.TID 0000.0001) > abEps       = 0.1,
(PID.TID 0000.0001) >## It is unclear what these specify.
(PID.TID 0000.0001) > pickupStrictlyMatch = .FALSE.,
(PID.TID 0000.0001) > forcing_In_AB       = .FALSE.,
(PID.TID 0000.0001) > momDissip_In_AB     = .FALSE.,
(PID.TID 0000.0001) > dumpInitAndLast     = .FALSE.,
(PID.TID 0000.0001) > /
(PID.TID 0000.0001) >### Gridding parameters -------------------------------------------------------
(PID.TID 0000.0001) > &PARM04
(PID.TID 0000.0001) > usingSphericalPolarGrid=.TRUE.,
(PID.TID 0000.0001) >## Specify the height of each vertical level.
(PID.TID 0000.0001) > delR =   5.00,   5.00,   5.00,   5.00,   5.00,   5.00,   5.00,   5.00,   5.00,
(PID.TID 0000.0001) >          5.00,   5.00,   5.00,   5.00,   5.00,   5.00,   5.01,   5.01,   5.02,
(PID.TID 0000.0001) >          5.04,   5.07,   5.12,   5.20,   5.31,   5.49,   5.72,   6.04,   6.45,
(PID.TID 0000.0001) >          6.97,   7.62,   8.42,   9.36,  10.46,  11.72,  13.13,  14.70,  16.40,
(PID.TID 0000.0001) >         18.24,  20.18,  22.21,  24.29,  26.43,  28.57,  30.71,  32.79,  34.82,
(PID.TID 0000.0001) >         36.76,  38.60,  40.30,  41.87,  43.28,  44.54,  45.64,  46.58,  47.38,
(PID.TID 0000.0001) >         48.03,  48.55,  48.96,  49.29,  49.53,  49.72,  49.90,  50.11,  50.41,
(PID.TID 0000.0001) >         50.92,  51.69,  52.87,  54.54,  56.79,  59.67,  63.16,  67.26,  71.83,
(PID.TID 0000.0001) >         76.83,  82.11,  87.61,  93.22,  98.91, 104.64, 110.38, 116.12, 121.87,
(PID.TID 0000.0001) >        127.63, 133.38, 139.12, 144.87, 150.63, 156.38, 162.12, 167.87, 173.63,
(PID.TID 0000.0001) >        179.38, 185.12, 190.87, 196.63, 202.38, 208.12, 213.87, 219.63, 225.38,
(PID.TID 0000.0001) >        231.12,
(PID.TID 0000.0001) > xgOrigin=-81.583335876464844,
(PID.TID 0000.0001) > dxSpacing= 0.025568608540374,
(PID.TID 0000.0001) > ygOrigin= 26.855293273925781,
(PID.TID 0000.0001) > dySpacing= 0.020833333333333,
(PID.TID 0000.0001) > /
(PID.TID 0000.0001) ># -----------------------------------------------------------------------------
(PID.TID 0000.0001) >### Bathymetry files and initial condition files
(PID.TID 0000.0001) > &PARM05
(PID.TID 0000.0001) > bathyFile       = 'bathy_2km_new.bin',
(PID.TID 0000.0001) > hydrogThetaFile = 't0_2960x800x100.bin',
(PID.TID 0000.0001) > hydrogSaltFile  = 's0_2960x800x100.bin',
(PID.TID 0000.0001) > uVelInitFile    = 'u0_2960x800x100.bin',
(PID.TID 0000.0001) > vVelInitFile    = 'v0_2960x800x100.bin',
(PID.TID 0000.0001) > /
(PID.TID 0000.0001) 
(PID.TID 0000.0001)  INI_PARMS ; starts to read PARM01
(PID.TID 0000.0001)  INI_PARMS ; read PARM01 : OK
(PID.TID 0000.0001)  INI_PARMS ; starts to read PARM02
(PID.TID 0000.0001)  INI_PARMS ; read PARM02 : OK
(PID.TID 0000.0001)  INI_PARMS ; starts to read PARM03
(PID.TID 0000.0001)  INI_PARMS ; read PARM03 : OK
(PID.TID 0000.0001)  INI_PARMS ; starts to read PARM04
(PID.TID 0000.0001)  INI_PARMS ; read PARM04 : OK
(PID.TID 0000.0001)  INI_PARMS ; starts to read PARM05
(PID.TID 0000.0001)  INI_PARMS ; read PARM05 : OK
(PID.TID 0000.0001)  INI_PARMS: finished reading file "data"
(PID.TID 0000.0001)  PACKAGES_BOOT: opening data.pkg
(PID.TID 0000.0001)  OPEN_COPY_DATA_FILE: opening file data.pkg
(PID.TID 0000.0001) // =======================================================
(PID.TID 0000.0001) // Parameter file "data.pkg"
(PID.TID 0000.0001) // =======================================================
(PID.TID 0000.0001) ># Packages
(PID.TID 0000.0001) > &PACKAGES
(PID.TID 0000.0001) > useCAL         = .TRUE.,
(PID.TID 0000.0001) > useEXF         = .TRUE.,
(PID.TID 0000.0001) > useKPP         = .TRUE.,
(PID.TID 0000.0001) > usePTRACERS    =.TRUE.,
(PID.TID 0000.0001) > useDiagnostics = .TRUE.,
(PID.TID 0000.0001) > useOBCS        = .TRUE.,
(PID.TID 0000.0001) ># useProfiles=.TRUE.,
(PID.TID 0000.0001) > /
(PID.TID 0000.0001) 
(PID.TID 0000.0001)  PACKAGES_BOOT: finished reading data.pkg
(PID.TID 0000.0001)  PACKAGES_BOOT: On/Off package Summary
 --------  pkgs with a standard "usePKG" On/Off switch in "data.pkg":  --------
 pkg/obcs                 compiled   and   used ( useOBCS                  = T )
 pkg/kpp                  compiled   and   used ( useKPP                   = T )
 pkg/cal                  compiled   and   used ( useCAL                   = T )
 pkg/exf                  compiled   and   used ( useEXF                   = T )
 pkg/ptracers             compiled   and   used ( usePTRACERS              = T )
 pkg/rbcs                 compiled but not used ( useRBCS                  = F )
 pkg/diagnostics          compiled   and   used ( useDiagnostics           = T )
 -------- pkgs without standard "usePKG" On/Off switch in "data.pkg":  --------
 pkg/generic_advdiff      compiled   and   used ( useGAD                   = T )
 pkg/mom_common           compiled   and   used ( momStepping              = T )
 pkg/mom_vecinv           compiled   and   used ( +vectorInvariantMomentum = T )
 pkg/monitor              compiled   and   used ( monitorFreq > 0.         = T )
 pkg/debug                compiled but not used ( debugMode                = F )
 pkg/exch2                compiled   and   used
 pkg/rw                   compiled   and   used
 pkg/mdsio                compiled   and   used
(PID.TID 0000.0001)  PACKAGES_BOOT: End of package Summary
(PID.TID 0000.0001) 
(PID.TID 0000.0001) CAL_READPARMS: opening data.cal
(PID.TID 0000.0001)  OPEN_COPY_DATA_FILE: opening file data.cal
(PID.TID 0000.0001) // =======================================================
(PID.TID 0000.0001) // Parameter file "data.cal"
(PID.TID 0000.0001) // =======================================================
(PID.TID 0000.0001) >#
(PID.TID 0000.0001) ># *******************
(PID.TID 0000.0001) ># Calendar Parameters
(PID.TID 0000.0001) ># *******************
(PID.TID 0000.0001) > &CAL_NML
(PID.TID 0000.0001) > TheCalendar='gregorian',
(PID.TID 0000.0001) > startDate_1=20080101,
(PID.TID 0000.0001) > startDate_2=000000,
(PID.TID 0000.0001) > calendarDumps = .TRUE.,
(PID.TID 0000.0001) > &
(PID.TID 0000.0001) 
(PID.TID 0000.0001) CAL_READPARMS: finished reading data.cal
(PID.TID 0000.0001) EXF_READPARMS: opening data.exf
(PID.TID 0000.0001)  OPEN_COPY_DATA_FILE: opening file data.exf
(PID.TID 0000.0001) // =======================================================
(PID.TID 0000.0001) // Parameter file "data.exf"
(PID.TID 0000.0001) // =======================================================
(PID.TID 0000.0001) ># *********************
(PID.TID 0000.0001) ># External Forcing Data
(PID.TID 0000.0001) ># *********************
(PID.TID 0000.0001) >#
(PID.TID 0000.0001) > &EXF_NML_01
(PID.TID 0000.0001) >#
(PID.TID 0000.0001) > useAtmWind        = .TRUE.,
(PID.TID 0000.0001) >#
(PID.TID 0000.0001) >#TO COMBINE WITH ALLOW_ZENITH_ANGLE:
(PID.TID 0000.0001) > exf_albedo        = 0.1,
(PID.TID 0000.0001) > useExfZenIncoming = .TRUE.,
(PID.TID 0000.0001) > select_ZenAlbedo  = 1,
(PID.TID 0000.0001) >#
(PID.TID 0000.0001) > ocean_emissivity  = 0.97,
(PID.TID 0000.0001) > ice_emissivity    = 0.95,
(PID.TID 0000.0001) > snow_emissivity   = 0.95,
(PID.TID 0000.0001) > exf_iprec         = 32,
(PID.TID 0000.0001) > exf_iprec_obcs    = 32,
(PID.TID 0000.0001) > exf_yftype        = 'RL',
(PID.TID 0000.0001) > useExfYearlyFields= .TRUE.,
(PID.TID 0000.0001) > useExfCheckRange  = .FALSE.,
(PID.TID 0000.0001) > useRelativeWind   = .TRUE.,
(PID.TID 0000.0001) > &
(PID.TID 0000.0001) >#
(PID.TID 0000.0001) > &EXF_NML_02
(PID.TID 0000.0001) > apressurefile     = 'era5_08_09/ERA5_pres',
(PID.TID 0000.0001) > atempfile         = 'era5_08_09/ERA5_tmp2m_degC',
(PID.TID 0000.0001) > aqhfile           = 'era5_08_09/ERA5_spfh2m',
(PID.TID 0000.0001) > precipfile        = 'era5_08_09/ERA5_rain',
(PID.TID 0000.0001) > uwindfile         = 'era5_08_09/ERA5_u10m',
(PID.TID 0000.0001) > vwindfile         = 'era5_08_09/ERA5_v10m',
(PID.TID 0000.0001) > swdownfile        = 'era5_08_09/ERA5_dsw',
(PID.TID 0000.0001) > lwdownfile        = 'era5_08_09/ERA5_dlw',
(PID.TID 0000.0001) > tidePotfile       = 'tide_IAU_EARTH',
(PID.TID 0000.0001) > runofffile        = 'runoff1p2472-360x180x12.bin',
(PID.TID 0000.0001) >#
(PID.TID 0000.0001) > apressurestartdate1 = 19920101,
(PID.TID 0000.0001) > apressurestartdate2 = 000000,
(PID.TID 0000.0001) > apressureperiod   = 3600.0,
(PID.TID 0000.0001) >#
(PID.TID 0000.0001) > atempstartdate1   = 19920101,
(PID.TID 0000.0001) > atempstartdate2   = 000000,
(PID.TID 0000.0001) > atempperiod       = 3600.0,
(PID.TID 0000.0001) >#
(PID.TID 0000.0001) > aqhstartdate1     = 19920101,
(PID.TID 0000.0001) > aqhstartdate2     = 000000,
(PID.TID 0000.0001) > aqhperiod         = 3600.0,
(PID.TID 0000.0001) >#
(PID.TID 0000.0001) > precipstartdate1  = 19920101,
(PID.TID 0000.0001) > precipstartdate2  = 003000,
(PID.TID 0000.0001) > precipperiod      = 3600.0,
(PID.TID 0000.0001) >#
(PID.TID 0000.0001) > uwindstartdate1   = 19920101,
(PID.TID 0000.0001) > uwindstartdate2   = 000000,
(PID.TID 0000.0001) > uwindperiod       = 3600.0,
(PID.TID 0000.0001) >#
(PID.TID 0000.0001) > vwindstartdate1   = 19920101,
(PID.TID 0000.0001) > vwindstartdate2   = 000000,
(PID.TID 0000.0001) > vwindperiod       = 3600.0,
(PID.TID 0000.0001) >#
(PID.TID 0000.0001) > swdownstartdate1  = 19920101,
(PID.TID 0000.0001) > swdownstartdate2  = 003000,
(PID.TID 0000.0001) > swdownperiod      = 3600.0,
(PID.TID 0000.0001) >#
(PID.TID 0000.0001) > lwdownstartdate1  = 19920101,
(PID.TID 0000.0001) > lwdownstartdate2  = 003000,
(PID.TID 0000.0001) > lwdownperiod      = 3600.0,
(PID.TID 0000.0001) > tidePotstartdate1  = 19790101,
(PID.TID 0000.0001) > tidePotstartdate2  = 000000,
(PID.TID 0000.0001) > tidePotperiod      = 3600.0,
(PID.TID 0000.0001) ># "*period=-12" specifies monthly-mean forcing
(PID.TID 0000.0001) > runoffperiod      = -12,
(PID.TID 0000.0001) > &
(PID.TID 0000.0001) >#
(PID.TID 0000.0001) > &EXF_NML_03
(PID.TID 0000.0001) > exf_offset_atemp   = 273.15,
(PID.TID 0000.0001) > exf_inscal_swdown  = -1.0,
(PID.TID 0000.0001) > exf_inscal_lwdown  = -1.0,
(PID.TID 0000.0001) ># 1/365/24/3600 yr/s conversion, runoff [m/yr --> m/s]
(PID.TID 0000.0001) > exf_inscal_runoff = 3.1710e-08,
(PID.TID 0000.0001) > &
(PID.TID 0000.0001) >#
(PID.TID 0000.0001) > &EXF_NML_04
(PID.TID 0000.0001) ># runoff_interpMethod = 0,
(PID.TID 0000.0001) >#
(PID.TID 0000.0001) > apressure_lon0    =   0.0000000D0,
(PID.TID 0000.0001) > apressure_lon_inc =   0.2812500D0,
(PID.TID 0000.0001) > apressure_lat0    = -89.7848850D0,
(PID.TID 0000.0001) > apressure_lat_inc = 0.2786766D0,0.2803199D0,0.2806917D0,0.2808328D0,0.2809011D0,0.2809392D0,0.2809626D0,0.2809781D0,
(PID.TID 0000.0001) >                     0.2809888D0,0.2809965D0,0.2810023D0,0.2810067D0,0.2810102D0,0.2810129D0,0.2810151D0,
(PID.TID 0000.0001) >                     33*0.2810258D0,543*0.2810302D0,33*0.2810258D0,
(PID.TID 0000.0001) >                     0.2810151D0,0.2810129D0,0.2810102D0,0.2810067D0,0.2810023D0,0.2809965D0,0.2809888D0,0.2809781D0,
(PID.TID 0000.0001) >                     0.2809626D0,0.2809392D0,0.2809011D0,0.2808328D0,0.2806917D0,0.2803199D0,0.2786766D0,
(PID.TID 0000.0001) > apressure_nlon    = 1280,
(PID.TID 0000.0001) > apressure_nlat    = 640,
(PID.TID 0000.0001) >#
(PID.TID 0000.0001) > atemp_lon0        =   0.0000000D0,
(PID.TID 0000.0001) > atemp_lon_inc     =   0.2812500D0,
(PID.TID 0000.0001) > atemp_lat0        = -89.7848850D0,
(PID.TID 0000.0001) > atemp_lat_inc     = 0.2786766D0,0.2803199D0,0.2806917D0,0.2808328D0,0.2809011D0,0.2809392D0,0.2809626D0,0.2809781D0,
(PID.TID 0000.0001) >                     0.2809888D0,0.2809965D0,0.2810023D0,0.2810067D0,0.2810102D0,0.2810129D0,0.2810151D0,
(PID.TID 0000.0001) >                     33*0.2810258D0,543*0.2810302D0,33*0.2810258D0,
(PID.TID 0000.0001) >                     0.2810151D0,0.2810129D0,0.2810102D0,0.2810067D0,0.2810023D0,0.2809965D0,0.2809888D0,0.2809781D0,
(PID.TID 0000.0001) >                     0.2809626D0,0.2809392D0,0.2809011D0,0.2808328D0,0.2806917D0,0.2803199D0,0.2786766D0,
(PID.TID 0000.0001) > atemp_nlon        = 1280,
(PID.TID 0000.0001) > atemp_nlat        = 640,
(PID.TID 0000.0001) >#
(PID.TID 0000.0001) > aqh_lon0        =   0.0000000D0,
(PID.TID 0000.0001) > aqh_lon_inc     =   0.2812500D0,
(PID.TID 0000.0001) > aqh_lat0        = -89.7848850D0,
(PID.TID 0000.0001) > aqh_lat_inc     = 0.2786766D0,0.2803199D0,0.2806917D0,0.2808328D0,0.2809011D0,0.2809392D0,0.2809626D0,0.2809781D0,
(PID.TID 0000.0001) >                     0.2809888D0,0.2809965D0,0.2810023D0,0.2810067D0,0.2810102D0,0.2810129D0,0.2810151D0,
(PID.TID 0000.0001) >                     33*0.2810258D0,543*0.2810302D0,33*0.2810258D0,
(PID.TID 0000.0001) >                     0.2810151D0,0.2810129D0,0.2810102D0,0.2810067D0,0.2810023D0,0.2809965D0,0.2809888D0,0.2809781D0,
(PID.TID 0000.0001) >                     0.2809626D0,0.2809392D0,0.2809011D0,0.2808328D0,0.2806917D0,0.2803199D0,0.2786766D0,
(PID.TID 0000.0001) > aqh_nlon        = 1280,
(PID.TID 0000.0001) > aqh_nlat        = 640,
(PID.TID 0000.0001) >#
(PID.TID 0000.0001) > precip_lon0        =   0.0000000D0,
(PID.TID 0000.0001) > precip_lon_inc     =   0.2812500D0,
(PID.TID 0000.0001) > precip_lat0        = -89.7848850D0,
(PID.TID 0000.0001) > precip_lat_inc     = 0.2786766D0,0.2803199D0,0.2806917D0,0.2808328D0,0.2809011D0,0.2809392D0,0.2809626D0,0.2809781D0,
(PID.TID 0000.0001) >                     0.2809888D0,0.2809965D0,0.2810023D0,0.2810067D0,0.2810102D0,0.2810129D0,0.2810151D0,
(PID.TID 0000.0001) >                     33*0.2810258D0,543*0.2810302D0,33*0.2810258D0,
(PID.TID 0000.0001) >                     0.2810151D0,0.2810129D0,0.2810102D0,0.2810067D0,0.2810023D0,0.2809965D0,0.2809888D0,0.2809781D0,
(PID.TID 0000.0001) >                     0.2809626D0,0.2809392D0,0.2809011D0,0.2808328D0,0.2806917D0,0.2803199D0,0.2786766D0,
(PID.TID 0000.0001) > precip_nlon        = 1280,
(PID.TID 0000.0001) > precip_nlat        = 640,
(PID.TID 0000.0001) >#
(PID.TID 0000.0001) > uwind_lon0        =   0.0000000D0,
(PID.TID 0000.0001) > uwind_lon_inc     =   0.2812500D0,
(PID.TID 0000.0001) > uwind_lat0        = -89.7848850D0,
(PID.TID 0000.0001) > uwind_lat_inc     = 0.2786766D0,0.2803199D0,0.2806917D0,0.2808328D0,0.2809011D0,0.2809392D0,0.2809626D0,0.2809781D0,
(PID.TID 0000.0001) >                     0.2809888D0,0.2809965D0,0.2810023D0,0.2810067D0,0.2810102D0,0.2810129D0,0.2810151D0,
(PID.TID 0000.0001) >                     33*0.2810258D0,543*0.2810302D0,33*0.2810258D0,
(PID.TID 0000.0001) >                     0.2810151D0,0.2810129D0,0.2810102D0,0.2810067D0,0.2810023D0,0.2809965D0,0.2809888D0,0.2809781D0,
(PID.TID 0000.0001) >                     0.2809626D0,0.2809392D0,0.2809011D0,0.2808328D0,0.2806917D0,0.2803199D0,0.2786766D0,
(PID.TID 0000.0001) > uwind_nlon        = 1280,
(PID.TID 0000.0001) > uwind_nlat        = 640,
(PID.TID 0000.0001) >#
(PID.TID 0000.0001) > vwind_lon0        =   0.0000000D0,
(PID.TID 0000.0001) > vwind_lon_inc     =   0.2812500D0,
(PID.TID 0000.0001) > vwind_lat0        = -89.7848850D0,
(PID.TID 0000.0001) > vwind_lat_inc     = 0.2786766D0,0.2803199D0,0.2806917D0,0.2808328D0,0.2809011D0,0.2809392D0,0.2809626D0,0.2809781D0,
(PID.TID 0000.0001) >                     0.2809888D0,0.2809965D0,0.2810023D0,0.2810067D0,0.2810102D0,0.2810129D0,0.2810151D0,
(PID.TID 0000.0001) >                     33*0.2810258D0,543*0.2810302D0,33*0.2810258D0,
(PID.TID 0000.0001) >                     0.2810151D0,0.2810129D0,0.2810102D0,0.2810067D0,0.2810023D0,0.2809965D0,0.2809888D0,0.2809781D0,
(PID.TID 0000.0001) >                     0.2809626D0,0.2809392D0,0.2809011D0,0.2808328D0,0.2806917D0,0.2803199D0,0.2786766D0,
(PID.TID 0000.0001) > vwind_nlon        = 1280,
(PID.TID 0000.0001) > vwind_nlat        = 640,
(PID.TID 0000.0001) >#
(PID.TID 0000.0001) > swdown_lon0        =   0.0000000D0,
(PID.TID 0000.0001) > swdown_lon_inc     =   0.2812500D0,
(PID.TID 0000.0001) > swdown_lat0        = -89.7848850D0,
(PID.TID 0000.0001) > swdown_lat_inc     = 0.2786766D0,0.2803199D0,0.2806917D0,0.2808328D0,0.2809011D0,0.2809392D0,0.2809626D0,0.2809781D0,
(PID.TID 0000.0001) >                     0.2809888D0,0.2809965D0,0.2810023D0,0.2810067D0,0.2810102D0,0.2810129D0,0.2810151D0,
(PID.TID 0000.0001) >                     33*0.2810258D0,543*0.2810302D0,33*0.2810258D0,
(PID.TID 0000.0001) >                     0.2810151D0,0.2810129D0,0.2810102D0,0.2810067D0,0.2810023D0,0.2809965D0,0.2809888D0,0.2809781D0,
(PID.TID 0000.0001) >                     0.2809626D0,0.2809392D0,0.2809011D0,0.2808328D0,0.2806917D0,0.2803199D0,0.2786766D0,
(PID.TID 0000.0001) > swdown_nlon        = 1280,
(PID.TID 0000.0001) > swdown_nlat        = 640,
(PID.TID 0000.0001) >#
(PID.TID 0000.0001) > lwdown_lon0        =   0.0000000D0,
(PID.TID 0000.0001) > lwdown_lon_inc     =   0.2812500D0,
(PID.TID 0000.0001) > lwdown_lat0        = -89.7848850D0,
(PID.TID 0000.0001) > lwdown_lat_inc     = 0.2786766D0,0.2803199D0,0.2806917D0,0.2808328D0,0.2809011D0,0.2809392D0,0.2809626D0,0.2809781D0,
(PID.TID 0000.0001) >                     0.2809888D0,0.2809965D0,0.2810023D0,0.2810067D0,0.2810102D0,0.2810129D0,0.2810151D0,
(PID.TID 0000.0001) >                     33*0.2810258D0,543*0.2810302D0,33*0.2810258D0,
(PID.TID 0000.0001) >                     0.2810151D0,0.2810129D0,0.2810102D0,0.2810067D0,0.2810023D0,0.2809965D0,0.2809888D0,0.2809781D0,
(PID.TID 0000.0001) >                     0.2809626D0,0.2809392D0,0.2809011D0,0.2808328D0,0.2806917D0,0.2803199D0,0.2786766D0,
(PID.TID 0000.0001) > lwdown_nlon        = 1280,
(PID.TID 0000.0001) > lwdown_nlat        = 640,
(PID.TID 0000.0001) >#
(PID.TID 0000.0001) > tidePot_lon0       = 0.0D0,
(PID.TID 0000.0001) > tidePot_lon_inc    = 1.0D0,
(PID.TID 0000.0001) > tidePot_lat0       = -90.0D0,
(PID.TID 0000.0001) > tidePot_lat_inc    = 180*1.0D0,
(PID.TID 0000.0001) > tidePot_nlon       = 360,
(PID.TID 0000.0001) > tidePot_nlat       = 181,
(PID.TID 0000.0001) >#
(PID.TID 0000.0001) > runoff_lon0       = 0.50D0,
(PID.TID 0000.0001) > runoff_lon_inc    = 1.0D0,
(PID.TID 0000.0001) > runoff_lat0       = -89.5D0,
(PID.TID 0000.0001) > runoff_lat_inc    = 179*1.,
(PID.TID 0000.0001) > runoff_nlon       = 360,
(PID.TID 0000.0001) > runoff_nlat       = 180,
(PID.TID 0000.0001) > &
(PID.TID 0000.0001) >#
(PID.TID 0000.0001) > &EXF_NML_OBCS
(PID.TID 0000.0001) > useOBCSYearlyFields=.TRUE.,
(PID.TID 0000.0001) > &
(PID.TID 0000.0001) 
(PID.TID 0000.0001) EXF_READPARMS: reading EXF_NML_01
(PID.TID 0000.0001) EXF_READPARMS: reading EXF_NML_02
(PID.TID 0000.0001) EXF_READPARMS: reading EXF_NML_03
(PID.TID 0000.0001) EXF_READPARMS: reading EXF_NML_04
(PID.TID 0000.0001) EXF_READPARMS: reading EXF_NML_OBCS
(PID.TID 0000.0001) EXF_READPARMS: finished reading data.exf
(PID.TID 0000.0001)  OBCS_READPARMS: opening data.obcs
(PID.TID 0000.0001)  OPEN_COPY_DATA_FILE: opening file data.obcs
(PID.TID 0000.0001) // =======================================================
(PID.TID 0000.0001) // Parameter file "data.obcs"
(PID.TID 0000.0001) // =======================================================
(PID.TID 0000.0001) ># ***************
(PID.TID 0000.0001) ># Open boundaries
(PID.TID 0000.0001) ># ***************
(PID.TID 0000.0001) > &OBCS_PARM01
(PID.TID 0000.0001) > OB_Jnorth = 2960*-1,
(PID.TID 0000.0001) > OB_Jsouth = 2960*1,
(PID.TID 0000.0001) > OB_Ieast = 800*-1,
(PID.TID 0000.0001) >#
(PID.TID 0000.0001) > useOBCSprescribe=.TRUE.,
(PID.TID 0000.0001) ># useOBCSsponge=.true.,
(PID.TID 0000.0001) > OBCS_monSelect = 3,
(PID.TID 0000.0001) ># >0: use 1rst O. upwind adv-scheme @ OB (=1: only if outflow)
(PID.TID 0000.0001) > OBCS_u1_adv_T = 1,
(PID.TID 0000.0001) > OBCS_u1_adv_S = 1,
(PID.TID 0000.0001) >#
(PID.TID 0000.0001) > OBSsFile='OBSs_2960x100x12.bin',
(PID.TID 0000.0001) > OBStFile='OBSt_2960x100x12.bin',
(PID.TID 0000.0001) > OBSuFile='OBSu_2960x100x12.bin',
(PID.TID 0000.0001) > OBSvFile='OBSv_2960x100x12.bin',
(PID.TID 0000.0001) >#
(PID.TID 0000.0001) > OBNsFile='OBNs_2960x100x12.bin',
(PID.TID 0000.0001) > OBNtFile='OBNt_2960x100x12.bin',
(PID.TID 0000.0001) > OBNuFile='OBNu_2960x100x12.bin',
(PID.TID 0000.0001) > OBNvFile='OBNv_2960x100x12.bin',
(PID.TID 0000.0001) >#
(PID.TID 0000.0001) > OBEsFile='OBEs_800x100x12.bin',
(PID.TID 0000.0001) > OBEtFile='OBEt_800x100x12.bin',
(PID.TID 0000.0001) > OBEuFile='OBEu_800x100x12.bin',
(PID.TID 0000.0001) > OBEvFile='OBEv_800x100x12.bin',
(PID.TID 0000.0001) >#
(PID.TID 0000.0001) ># Balancing
(PID.TID 0000.0001) > useOBCSbalance = .TRUE.,
(PID.TID 0000.0001) > OBCS_balanceFacN = -1,
(PID.TID 0000.0001) > OBCS_balanceFacS = -1,
(PID.TID 0000.0001) > OBCS_balanceFacE = -1,
(PID.TID 0000.0001) >## *****************************************
(PID.TID 0000.0001) >## Tidal BC parameters
(PID.TID 0000.0001) >## *****************************************
(PID.TID 0000.0001) > useOBCStides = .TRUE.,
(PID.TID 0000.0001) >##components   = M2       S2     N2       K2       K1      O1       P1       Q1       Mf         Mm
(PID.TID 0000.0001) >##periods (hr) = 12.4206  12     12.6583  11.9672  23.9345 25.8193  24.0659  26.8684  327.8599   661.31
(PID.TID 0000.0001) >##period(sec)  = 44714.165 43200.001 45570.054 43082.05 86164.077 92949.636 86637.2 96726.086 1180295.5 2380715.9
(PID.TID 0000.0001) >##components      m2        s2        n2        k2        k1        o1        p1        q1        mf        mm        m4        ms4       mn4
(PID.TID 0000.0001) >##period (hr): 12.420601 12.000000 12.658348 11.967236 23.934466 25.819343 24.065889 26.868357 327.859874 661.309962 6.210303 6.103339 6.269178
(PID.TID 0000.0001) >##period (s):  44714.165192 43200.001287 45570.053512 43082.050319 86164.077005 92949.635701 86637.199772 96726.085703 1180295.545550 2380715.863587 22357.090551 21972.021930 22569.042448
(PID.TID 0000.0001) > tidalPeriod  = 44714.165 43200.001 45570.054 43082.050 86164.077 92949.636 86637.200 96726.086 1180295.546 2380715.864 22357.091 21972.022 22569.042,
(PID.TID 0000.0001) > OBSamFile='OBSvam_2960x13.bin',
(PID.TID 0000.0001) > OBNamFile='OBNvam_2960x13.bin',
(PID.TID 0000.0001) > OBEamFile='OBEuam_800x13.bin',
(PID.TID 0000.0001) > OBSphFile='OBSvph_2960x13.bin',
(PID.TID 0000.0001) > OBNphFile='OBNvph_2960x13.bin',
(PID.TID 0000.0001) > OBEphFile='OBEuph_800x13.bin',
(PID.TID 0000.0001) > &
(PID.TID 0000.0001) ># *****************************************
(PID.TID 0000.0001) ># Sponge Layer Parameters.
(PID.TID 0000.0001) ># *****************************************
(PID.TID 0000.0001) > &OBCS_PARM03
(PID.TID 0000.0001) ># Urelaxobcsinner=2629800.E0,
(PID.TID 0000.0001) ># Urelaxobcsbound=43200.E0,
(PID.TID 0000.0001) >#
(PID.TID 0000.0001) ># Vrelaxobcsinner=2629800.E0,
(PID.TID 0000.0001) ># Vrelaxobcsbound=43200.E0,
(PID.TID 0000.0001) >#
(PID.TID 0000.0001) ># spongeThickness=16,
(PID.TID 0000.0001) > &
(PID.TID 0000.0001) 
(PID.TID 0000.0001)  OBCS_READPARMS: finished reading data.obcs
(PID.TID 0000.0001)  OB_indexUnset = /* unset OB index value (i.e. no OB) */
(PID.TID 0000.0001)                       0
(PID.TID 0000.0001)     ;
(PID.TID 0000.0001)  Northern OB global indices : OB_Jnorth =
(PID.TID 0000.0001)  2960 @      800                            /* I =  1:*** */
(PID.TID 0000.0001)  Southern OB global indices : OB_Jsouth =
(PID.TID 0000.0001)  2960 @        1                            /* I =  1:*** */
(PID.TID 0000.0001)  Eastern  OB global indices : OB_Ieast =
(PID.TID 0000.0001)   800 @     2960                            /* J =  1:800 */
(PID.TID 0000.0001)  Western  OB global indices : OB_Iwest =
(PID.TID 0000.0001)   800 @        0                            /* J =  1:800 */
(PID.TID 0000.0001) 
(PID.TID 0000.0001)  KPP_READPARMS: opening data.kpp
(PID.TID 0000.0001)  OPEN_COPY_DATA_FILE: opening file data.kpp
(PID.TID 0000.0001) // =======================================================
(PID.TID 0000.0001) // Parameter file "data.kpp"
(PID.TID 0000.0001) // =======================================================
(PID.TID 0000.0001) ># KPP parameters
(PID.TID 0000.0001) > &KPP_PARM01
(PID.TID 0000.0001) >### KPPmixingMaps   = .FALSE.,
(PID.TID 0000.0001) >### KPPwriteState   = .FALSE.,
(PID.TID 0000.0001) >### kpp_dumpFreq    = 0.,
(PID.TID 0000.0001) >### kpp_tavefreq    = 0.,
(PID.TID 0000.0001) >### Ricr            = 0.3559,
(PID.TID 0000.0001) >### Riinfty         = 0.6998,
(PID.TID 0000.0001) > &
(PID.TID 0000.0001) 
(PID.TID 0000.0001)  KPP_READPARMS ; starts to read KPP_PARM01
(PID.TID 0000.0001)  KPP_READPARMS ; read KPP_PARM01 : OK
(PID.TID 0000.0001)  KPP_READPARMS: finished reading data.kpp
(PID.TID 0000.0001)  PTRACERS_READPARMS: opening data.ptracers
(PID.TID 0000.0001)  OPEN_COPY_DATA_FILE: opening file data.ptracers
(PID.TID 0000.0001) // =======================================================
(PID.TID 0000.0001) // Parameter file "data.ptracers"
(PID.TID 0000.0001) // =======================================================
(PID.TID 0000.0001) >&PTRACERS_PARM01
(PID.TID 0000.0001) >  PTRACERS_Iter0=15811200,
(PID.TID 0000.0001) >  PTRACERS_numInUse=2,
(PID.TID 0000.0001) >  PTRACERS_advScheme(1)=7,
(PID.TID 0000.0001) >  PTRACERS_advScheme(2)=7,
(PID.TID 0000.0001) >  PTRACERS_names(1)='TRAC01',
(PID.TID 0000.0001) >  PTRACERS_names(2)='TRAC02',
(PID.TID 0000.0001) >  PTRACERS_ix = 500, 1000, 1500, 2000, 2500,
(PID.TID 0000.0001) >                500, 1000, 1500, 2000, 2500,
(PID.TID 0000.0001) >  PTRACERS_jx = 200, 200, 400, 400, 400,
(PID.TID 0000.0001) >                200, 200, 400, 400, 400,
(PID.TID 0000.0001) >  PTRACERS_ptx = 5*1, 5*2
(PID.TID 0000.0001) >  PTRACERS_tsx = 5*15811245, 5*15811290
(PID.TID 0000.0001) >&
(PID.TID 0000.0001) 
(PID.TID 0000.0001)  PTRACERS_READPARMS: finished reading data.ptracers
(PID.TID 0000.0001)  DIAGNOSTICS_READPARMS: opening data.diagnostics
(PID.TID 0000.0001)  OPEN_COPY_DATA_FILE: opening file data.diagnostics
(PID.TID 0000.0001) // =======================================================
(PID.TID 0000.0001) // Parameter file "data.diagnostics"
(PID.TID 0000.0001) // =======================================================
(PID.TID 0000.0001) ># Diagnostic Package Choices
(PID.TID 0000.0001) >#-----------------
(PID.TID 0000.0001) ># for each output-stream:
(PID.TID 0000.0001) >#  filename(n) : prefix of the output file name (only 8.c long) for outp.stream n
(PID.TID 0000.0001) >#  frequency(n):< 0 : write snap-shot output every multiple of |frequency| (iter)
(PID.TID 0000.0001) >#               > 0 : write time-average output every multiple of frequency (iter)
(PID.TID 0000.0001) >#  levels(:,n) : list of levels to write to file (Notes: declared as REAL)
(PID.TID 0000.0001) >#                 when this entry is missing, select all common levels of this list
(PID.TID 0000.0001) >#  fields(:,n) : list of diagnostics fields (8.c) (see "available_diagnostics" file
(PID.TID 0000.0001) >#                 for the list of all available diag. in this particular config)
(PID.TID 0000.0001) >#--------------------------------------------------------------------
(PID.TID 0000.0001) >#
(PID.TID 0000.0001) > &diagnostics_list
(PID.TID 0000.0001) >   dumpatlast = .TRUE.,
(PID.TID 0000.0001) >#---
(PID.TID 0000.0001) >  frequency(1) =-3600.,
(PID.TID 0000.0001) >   fields(1:8,1) = 'MXLDEPTH','KPPhbl','EXFuwind','EXFvwind',
(PID.TID 0000.0001) >   filename(1) = 'diags/surface',
(PID.TID 0000.0001) >#---
(PID.TID 0000.0001) >  frequency(2) =-3600.,
(PID.TID 0000.0001) >   fields(1:14,2)= 'THETA','SALT','UVEL','VVEL','WVEL',
(PID.TID 0000.0001) >                  'KPPdiffT', 'TRAC01', 'TRAC02',
(PID.TID 0000.0001) >   filename(2) = 'diags/interior',
(PID.TID 0000.0001) >   levels(1:58,2) =  1., 2., 3., 4., 5., 6., 7., 8., 9.,10.,11.,12.,13.,14.,15.,
(PID.TID 0000.0001) >                     16.,17.,18.,19.,20.,21.,22.,23.,24.,25.,26.,27.,28.,29.,30.,
(PID.TID 0000.0001) >                     31.,32.,33.,34.,35.,36.,37.,38.,39.,40.,41.,42.,43.,44.,45.,
(PID.TID 0000.0001) >                     46.,47.,48.,49.,50.,51.,52.,53.,54.,55.,56.,57.,58.,
(PID.TID 0000.0001) >#---
(PID.TID 0000.0001) > /
(PID.TID 0000.0001) >#
(PID.TID 0000.0001) >#
(PID.TID 0000.0001) ># Parameter for Diagnostics of per level statistics:
(PID.TID 0000.0001) >#-----------------
(PID.TID 0000.0001) ># for each output-stream:
(PID.TID 0000.0001) >#  stat_fname(n) : prefix of the output file name (only 8.c long) for outp.stream n
(PID.TID 0000.0001) >#  stat_freq(n):< 0 : write snap-shot output every |stat_freq| seconds
(PID.TID 0000.0001) >#               > 0 : write time-average output every stat_freq seconds
(PID.TID 0000.0001) >#  stat_phase(n)    : write at time = stat_phase + multiple of |stat_freq|
(PID.TID 0000.0001) >#  stat_region(:,n) : list of "regions" (default: 1 region only=global)
(PID.TID 0000.0001) >#  stat_fields(:,n) : list of diagnostics fields (8.c) (see "available_diagnostics.log"
(PID.TID 0000.0001) >#                 file for the list of all available diag. in this particular config)
(PID.TID 0000.0001) >#-----------------
(PID.TID 0000.0001) > &DIAG_STATIS_PARMS
(PID.TID 0000.0001) ># diagSt_regMaskFile='basin_masks_eccollc_90x50.bin',
(PID.TID 0000.0001) ># nSetRegMskFile=1,
(PID.TID 0000.0001) ># set_regMask(1)= 1,  1,  1,  1,  1,  1,  1,  1,  1,
(PID.TID 0000.0001) >#                 1,  1,  1,  1,  1,  1,  1,  1
(PID.TID 0000.0001) ># val_regMask(1)= 1., 2., 3., 4., 5., 6., 7., 8., 9.,
(PID.TID 0000.0001) >#                10.,11.,12.,13.,14.,15.,16.,17.
(PID.TID 0000.0001) >##---
(PID.TID 0000.0001) ># stat_fields(1,1)= 'ETAN    ','ETANSQ  ','DETADT2 ',
(PID.TID 0000.0001) >#                   'UVEL    ','VVEL    ','WVEL    ',
(PID.TID 0000.0001) >#                   'THETA   ','SALT    ',
(PID.TID 0000.0001) >#    stat_fname(1)= 'dynStDiag',
(PID.TID 0000.0001) >#     stat_freq(1)= 3153600.,
(PID.TID 0000.0001) ># stat_region(1,1)=  1, 2, 3, 4, 5, 6, 7, 8, 9,
(PID.TID 0000.0001) >#                   10,11,12,13,14,15,16,17
(PID.TID 0000.0001) >##---
(PID.TID 0000.0001) ># stat_fields(1,2)= 'oceTAUX ','oceTAUY ',
(PID.TID 0000.0001) >#                   'surForcT','surForcS','TFLUX   ','SFLUX   ',
(PID.TID 0000.0001) >#                   'oceQnet ','oceSflux','oceFWflx',
(PID.TID 0000.0001) >#    stat_fname(2)= 'surfStDiag',
(PID.TID 0000.0001) >#     stat_freq(2)= 3153600.,
(PID.TID 0000.0001) ># stat_region(1,2)=  1, 2, 3, 4, 5, 6, 7, 8, 9,
(PID.TID 0000.0001) >#                   10,11,12,13,14,15,16,17
(PID.TID 0000.0001) > /
(PID.TID 0000.0001) 
(PID.TID 0000.0001) S/R DIAGNOSTICS_READPARMS, read namelist "diagnostics_list": start
(PID.TID 0000.0001) S/R DIAGNOSTICS_READPARMS, read namelist "diagnostics_list": OK
(PID.TID 0000.0001) S/R DIAGNOSTICS_READPARMS, read namelist "DIAG_STATIS_PARMS": start
(PID.TID 0000.0001) S/R DIAGNOSTICS_READPARMS, read namelist "DIAG_STATIS_PARMS": OK
(PID.TID 0000.0001)  DIAGNOSTICS_READPARMS: global parameter summary:
(PID.TID 0000.0001)  dumpAtLast = /* always write time-ave diags at the end */
(PID.TID 0000.0001)                   T
(PID.TID 0000.0001)     ;
(PID.TID 0000.0001)  diag_mnc =   /* write NetCDF output files */
(PID.TID 0000.0001)                   F
(PID.TID 0000.0001)     ;
(PID.TID 0000.0001)  useMissingValue = /* put MissingValue where mask = 0 */
(PID.TID 0000.0001)                   F
(PID.TID 0000.0001)     ;
(PID.TID 0000.0001)  diagCG_maxIters = /* max number of iters in diag_cg2d */
(PID.TID 0000.0001)                    1000
(PID.TID 0000.0001)     ;
(PID.TID 0000.0001)  diagCG_resTarget = /* residual target for diag_cg2d */
(PID.TID 0000.0001)                 1.000000000000000E-07
(PID.TID 0000.0001)     ;
(PID.TID 0000.0001)  diagCG_pcOffDFac = /* preconditioner off-diagonal factor */
(PID.TID 0000.0001)                 9.611687812379854E-01
(PID.TID 0000.0001)     ;
(PID.TID 0000.0001) -----------------------------------------------------
(PID.TID 0000.0001)  DIAGNOSTICS_READPARMS: active diagnostics summary:
(PID.TID 0000.0001) -----------------------------------------------------
(PID.TID 0000.0001) Creating Output Stream: diags/surface
(PID.TID 0000.0001) Output Frequency:      -3600.000000 ; Phase:        1800.000000
(PID.TID 0000.0001)  Averaging Freq.:          0.000000 , Phase:           0.000000 , Cycle:   1
(PID.TID 0000.0001)  missing value: -9.990000000000E+02
(PID.TID 0000.0001)  Levels:    will be set later
(PID.TID 0000.0001)  Fields:    MXLDEPTH KPPhbl   EXFuwind EXFvwind
(PID.TID 0000.0001) Creating Output Stream: diags/interior
(PID.TID 0000.0001) Output Frequency:      -3600.000000 ; Phase:        1800.000000
(PID.TID 0000.0001)  Averaging Freq.:          0.000000 , Phase:           0.000000 , Cycle:   1
(PID.TID 0000.0001)  missing value: -9.990000000000E+02
(PID.TID 0000.0001)  Levels:       1.   2.   3.   4.   5.   6.   7.   8.   9.  10.  11.  12.  13.  14.  15.  16.  17.  18.  19.  20.
(PID.TID 0000.0001)  Levels:      21.  22.  23.  24.  25.  26.  27.  28.  29.  30.  31.  32.  33.  34.  35.  36.  37.  38.  39.  40.
(PID.TID 0000.0001)  Levels:      41.  42.  43.  44.  45.  46.  47.  48.  49.  50.  51.  52.  53.  54.  55.  56.  57.  58.
(PID.TID 0000.0001)  Fields:    THETA    SALT     UVEL     VVEL     WVEL     KPPdiffT TRAC01   TRAC02
(PID.TID 0000.0001) -----------------------------------------------------
(PID.TID 0000.0001)  DIAGNOSTICS_READPARMS: statistics diags. summary:
(PID.TID 0000.0001) -----------------------------------------------------
(PID.TID 0000.0001) 
(PID.TID 0000.0001) SET_PARMS: done
(PID.TID 0000.0001) Enter INI_VERTICAL_GRID: setInterFDr=    T ; setCenterDr=    F
(PID.TID 0000.0001) %MON XC_max                       =  -5.9130389012298E+00
(PID.TID 0000.0001) %MON XC_min                       =  -8.1570551572195E+01
(PID.TID 0000.0001) %MON XC_mean                      =  -4.3082614192395E+01
(PID.TID 0000.0001) %MON XC_sd                        =   2.0059025650461E+01
(PID.TID 0000.0001) %MON XG_max                       =  -5.9258232055000E+00
(PID.TID 0000.0001) %MON XG_min                       =  -8.1583335876465E+01
(PID.TID 0000.0001) %MON XG_mean                      =  -4.3095398496665E+01
(PID.TID 0000.0001) %MON XG_sd                        =   2.0059025650461E+01
(PID.TID 0000.0001) %MON DXC_max                      =   2.5358404386095E+03
(PID.TID 0000.0001) %MON DXC_min                      =   2.0615935803036E+03
(PID.TID 0000.0001) %MON DXC_mean                     =   2.3199157624265E+03
(PID.TID 0000.0001) %MON DXC_sd                       =   1.3547813987080E+02
(PID.TID 0000.0001) %MON DXF_max                      =   2.5358404386095E+03
(PID.TID 0000.0001) %MON DXF_min                      =   2.0615935803036E+03
(PID.TID 0000.0001) %MON DXF_mean                     =   2.3199157624265E+03
(PID.TID 0000.0001) %MON DXF_sd                       =   1.3547813987080E+02
(PID.TID 0000.0001) %MON DXG_max                      =   2.5360739431358E+03
(PID.TID 0000.0001) %MON DXG_min                      =   2.0619493695573E+03
(PID.TID 0000.0001) %MON DXG_mean                     =   2.3202113088535E+03
(PID.TID 0000.0001) %MON DXG_sd                       =   1.3544328728487E+02
(PID.TID 0000.0001) %MON DXV_max                      =   2.5360739431358E+03
(PID.TID 0000.0001) %MON DXV_min                      =   2.0619493695573E+03
(PID.TID 0000.0001) %MON DXV_mean                     =   2.3202113088535E+03
(PID.TID 0000.0001) %MON DXV_sd                       =   1.3544328728487E+02
(PID.TID 0000.0001) %MON YC_max                       =   4.3511543273927E+01
(PID.TID 0000.0001) %MON YC_min                       =   2.6865709940592E+01
(PID.TID 0000.0001) %MON YC_mean                      =   3.5023623512242E+01
(PID.TID 0000.0001) %MON YC_sd                        =   4.7479049454459E+00
(PID.TID 0000.0001) %MON YG_max                       =   4.3501126607260E+01
(PID.TID 0000.0001) %MON YG_min                       =   2.6855293273926E+01
(PID.TID 0000.0001) %MON YG_mean                      =   3.5013206845576E+01
(PID.TID 0000.0001) %MON YG_sd                        =   4.7479049454459E+00
(PID.TID 0000.0001) %MON DYC_max                      =   2.3161973615008E+03
(PID.TID 0000.0001) %MON DYC_min                      =   2.3161973615008E+03
(PID.TID 0000.0001) %MON DYC_mean                     =   2.3161973615005E+03
(PID.TID 0000.0001) %MON DYC_sd                       =   2.5556801119819E-10
(PID.TID 0000.0001) %MON DYF_max                      =   2.3161973615008E+03
(PID.TID 0000.0001) %MON DYF_min                      =   2.3161973615008E+03
(PID.TID 0000.0001) %MON DYF_mean                     =   2.3161973615005E+03
(PID.TID 0000.0001) %MON DYF_sd                       =   2.5556801119819E-10
(PID.TID 0000.0001) %MON DYG_max                      =   2.3161973615008E+03
(PID.TID 0000.0001) %MON DYG_min                      =   2.3161973615008E+03
(PID.TID 0000.0001) %MON DYG_mean                     =   2.3161973615005E+03
(PID.TID 0000.0001) %MON DYG_sd                       =   2.5556801119819E-10
(PID.TID 0000.0001) %MON DYU_max                      =   2.3161973615008E+03
(PID.TID 0000.0001) %MON DYU_min                      =   2.3161973615008E+03
(PID.TID 0000.0001) %MON DYU_mean                     =   2.3161973615005E+03
(PID.TID 0000.0001) %MON DYU_sd                       =   2.5556801119819E-10
(PID.TID 0000.0001) %MON RA_max                       =   5.8735069007379E+06
(PID.TID 0000.0001) %MON RA_min                       =   4.7750575848807E+06
(PID.TID 0000.0001) %MON RA_mean                      =   5.3733827382354E+06
(PID.TID 0000.0001) %MON RA_sd                        =   3.1379410838081E+05
(PID.TID 0000.0001) %MON RAW_max                      =   5.8735069007379E+06
(PID.TID 0000.0001) %MON RAW_min                      =   4.7750575848807E+06
(PID.TID 0000.0001) %MON RAW_mean                     =   5.3733827382354E+06
(PID.TID 0000.0001) %MON RAW_sd                       =   3.1379410838081E+05
(PID.TID 0000.0001) %MON RAS_max                      =   5.8740477433032E+06
(PID.TID 0000.0001) %MON RAS_min                      =   4.7758816630078E+06
(PID.TID 0000.0001) %MON RAS_mean                     =   5.3740672820864E+06
(PID.TID 0000.0001) %MON RAS_sd                       =   3.1371338291367E+05
(PID.TID 0000.0001) %MON RAZ_max                      =   5.8740477433032E+06
(PID.TID 0000.0001) %MON RAZ_min                      =   4.7758816630078E+06
(PID.TID 0000.0001) %MON RAZ_mean                     =   5.3740672820864E+06
(PID.TID 0000.0001) %MON RAZ_sd                       =   3.1371338291365E+05
(PID.TID 0000.0001) %MON AngleCS_max                  =   1.0000000000000E+00
(PID.TID 0000.0001) %MON AngleCS_min                  =   1.0000000000000E+00
(PID.TID 0000.0001) %MON AngleCS_mean                 =   1.0000000000000E+00
(PID.TID 0000.0001) %MON AngleCS_sd                   =   0.0000000000000E+00
(PID.TID 0000.0001) %MON AngleSN_max                  =   0.0000000000000E+00
(PID.TID 0000.0001) %MON AngleSN_min                  =   0.0000000000000E+00
(PID.TID 0000.0001) %MON AngleSN_mean                 =   0.0000000000000E+00
(PID.TID 0000.0001) %MON AngleSN_sd                   =   0.0000000000000E+00
(PID.TID 0000.0001) 
(PID.TID 0000.0001) // =======================================================
(PID.TID 0000.0001) // Calendar configuration >>> START <<<
(PID.TID 0000.0001) // =======================================================
(PID.TID 0000.0001) 
(PID.TID 0000.0001) modelstart = /* Start time of the model integration [s] */
(PID.TID 0000.0001)                 1.264896000000000E+09
(PID.TID 0000.0001)     ;
(PID.TID 0000.0001) modelend  = /* End time of the model integration [s] */
(PID.TID 0000.0001)                 1.265068800000000E+09
(PID.TID 0000.0001)     ;
(PID.TID 0000.0001) modelStep = /* Time interval for a model forward step [s] */
(PID.TID 0000.0001)                 8.000000000000000E+01
(PID.TID 0000.0001)     ;
(PID.TID 0000.0001) usingGregorianCalendar= /* Calendar Type: Gregorian Calendar */
(PID.TID 0000.0001)                   T
(PID.TID 0000.0001)     ;
(PID.TID 0000.0001) usingJulianCalendar = /* Calendar Type: Julian Calendar */
(PID.TID 0000.0001)                   F
(PID.TID 0000.0001)     ;
(PID.TID 0000.0001) usingNoLeapYearCal  = /* Calendar Type: without Leap Year */
(PID.TID 0000.0001)                   F
(PID.TID 0000.0001)     ;
(PID.TID 0000.0001) usingModelCalendar  = /* Calendar Type: Model Calendar */
(PID.TID 0000.0001)                   F
(PID.TID 0000.0001)     ;
(PID.TID 0000.0001) modelStartDate YYYYMMDD = /* Model start date YYYY-MM-DD */
(PID.TID 0000.0001)                20480131
(PID.TID 0000.0001)     ;
(PID.TID 0000.0001)   modelStartDate HHMMSS = /* Model start date HH-MM-SS  */
(PID.TID 0000.0001)                       0
(PID.TID 0000.0001)     ;
(PID.TID 0000.0001) modelEndDate   YYYYMMDD = /* Model end date YYYY-MM-DD */
(PID.TID 0000.0001)                20480202
(PID.TID 0000.0001)     ;
(PID.TID 0000.0001)   modelEndDate   HHMMSS = /* Model end date HH-MM-SS  */
(PID.TID 0000.0001)                       0
(PID.TID 0000.0001)     ;
(PID.TID 0000.0001) intyears = /* Number of calendar years affected by the integration */
(PID.TID 0000.0001)                       1
(PID.TID 0000.0001)     ;
(PID.TID 0000.0001) intmonths= /* Number of calendar months affected by the integration */
(PID.TID 0000.0001)                       2
(PID.TID 0000.0001)     ;
(PID.TID 0000.0001) intdays = /* Number of calendar days affected by the integration */
(PID.TID 0000.0001)                       2
(PID.TID 0000.0001)     ;
(PID.TID 0000.0001) modelIter0 = /* Base timestep number  */
(PID.TID 0000.0001)                15811200
(PID.TID 0000.0001)     ;
(PID.TID 0000.0001) modelIterEnd = /* Final timestep number  */
(PID.TID 0000.0001)                15813360
(PID.TID 0000.0001)     ;
(PID.TID 0000.0001) modelIntSteps= /* Number of model timesteps  */
(PID.TID 0000.0001)                    2160
(PID.TID 0000.0001)     ;
(PID.TID 0000.0001) 
(PID.TID 0000.0001) // =======================================================
(PID.TID 0000.0001) // Calendar configuration  >>> END <<<
(PID.TID 0000.0001) // =======================================================
(PID.TID 0000.0001) 
(PID.TID 0000.0001) GAD_INIT_FIXED: GAD_OlMinSize=  4  0  1
(PID.TID 0000.0001) 
(PID.TID 0000.0001) // ===================================
(PID.TID 0000.0001) // GAD parameters :
(PID.TID 0000.0001) // ===================================
(PID.TID 0000.0001) tempAdvScheme =   /* Temp. Horiz.Advection scheme selector */
(PID.TID 0000.0001)                       7
(PID.TID 0000.0001)     ;
(PID.TID 0000.0001) tempVertAdvScheme =   /* Temp. Vert. Advection scheme selector */
(PID.TID 0000.0001)                       7
(PID.TID 0000.0001)     ;
(PID.TID 0000.0001) tempMultiDimAdvec =   /* use Muti-Dim Advec method for Temp */
(PID.TID 0000.0001)                   T
(PID.TID 0000.0001)     ;
(PID.TID 0000.0001) tempSOM_Advection = /* use 2nd Order Moment Advection for Temp */
(PID.TID 0000.0001)                   F
(PID.TID 0000.0001)     ;
(PID.TID 0000.0001) AdamsBashforthGt = /* apply Adams-Bashforth extrapolation on Gt */
(PID.TID 0000.0001)                   F
(PID.TID 0000.0001)     ;
(PID.TID 0000.0001) AdamsBashforth_T = /* apply Adams-Bashforth extrapolation on Temp */
(PID.TID 0000.0001)                   F
(PID.TID 0000.0001)     ;
(PID.TID 0000.0001) saltAdvScheme =   /* Salt. Horiz.advection scheme selector */
(PID.TID 0000.0001)                       7
(PID.TID 0000.0001)     ;
(PID.TID 0000.0001) saltVertAdvScheme =   /* Salt. Vert. Advection scheme selector */
(PID.TID 0000.0001)                       7
(PID.TID 0000.0001)     ;
(PID.TID 0000.0001) saltMultiDimAdvec =   /* use Muti-Dim Advec method for Salt */
(PID.TID 0000.0001)                   T
(PID.TID 0000.0001)     ;
(PID.TID 0000.0001) saltSOM_Advection = /* use 2nd Order Moment Advection for Salt */
(PID.TID 0000.0001)                   F
(PID.TID 0000.0001)     ;
(PID.TID 0000.0001) AdamsBashforthGs = /* apply Adams-Bashforth extrapolation on Gs */
(PID.TID 0000.0001)                   F
(PID.TID 0000.0001)     ;
(PID.TID 0000.0001) AdamsBashforth_S = /* apply Adams-Bashforth extrapolation on Salt */
(PID.TID 0000.0001)                   F
(PID.TID 0000.0001)     ;
(PID.TID 0000.0001) // ===================================
(PID.TID 0000.0001) OBCS_INIT_FIXED: Setting OB indices in Overlap
(PID.TID 0000.0001)  Sets OBS(i,bi,bj=   21,  1,  1)=    1
(PID.TID 0000.0001)  Sets OBS(i,bi,bj=   22,  1,  1)=    1
(PID.TID 0000.0001)  Sets OBS(i,bi,bj=   23,  1,  1)=    1
(PID.TID 0000.0001)  Sets OBS(i,bi,bj=   24,  1,  1)=    1
(PID.TID 0000.0001) OBCS_INIT_FIXED: Setting OB indices in Overlap <= done
(PID.TID 0000.0001) 
(PID.TID 0000.0001) // =======================================================
(PID.TID 0000.0001) // External forcing (EXF) configuration >>> START <<<
(PID.TID 0000.0001) // =======================================================
(PID.TID 0000.0001) 
(PID.TID 0000.0001)  EXF general parameters:
(PID.TID 0000.0001) 
(PID.TID 0000.0001) exf_iprec = /* exf file precision */
(PID.TID 0000.0001)                      32
(PID.TID 0000.0001)     ;
(PID.TID 0000.0001) useExfYearlyFields = /* add extension _YEAR to input file names */
(PID.TID 0000.0001)                   T
(PID.TID 0000.0001)     ;
(PID.TID 0000.0001) twoDigitYear = /* use 2-digit year extension */
(PID.TID 0000.0001)                   F
(PID.TID 0000.0001)     ;
(PID.TID 0000.0001) useExfCheckRange = /* check for fields range */
(PID.TID 0000.0001)                   F
(PID.TID 0000.0001)     ;
(PID.TID 0000.0001) exf_output_interp = /* output directly interpolation result */
(PID.TID 0000.0001)                   F
(PID.TID 0000.0001)     ;
(PID.TID 0000.0001) exf_debugLev = /* select EXF-debug printing level */
(PID.TID 0000.0001)                       1
(PID.TID 0000.0001)     ;
(PID.TID 0000.0001) exf_monFreq  = /* EXF monitor frequency [ s ] */
(PID.TID 0000.0001)                 3.600000000000000E+03
(PID.TID 0000.0001)     ;
(PID.TID 0000.0001) repeatPeriod = /* period for cycling forcing dataset [ s ] */
(PID.TID 0000.0001)                 0.000000000000000E+00
(PID.TID 0000.0001)     ;
(PID.TID 0000.0001) climTempFreeze= /* Minimum climatological temperature [deg.C] */
(PID.TID 0000.0001)                -1.900000000000000E+00
(PID.TID 0000.0001)     ;
(PID.TID 0000.0001) windStressMax = /* Maximum absolute windstress [ Pa ] */
(PID.TID 0000.0001)                 2.000000000000000E+00
(PID.TID 0000.0001)     ;
(PID.TID 0000.0001) stressIsOnCgrid = /* set u,v_stress on Arakawa C-grid */
(PID.TID 0000.0001)                   F
(PID.TID 0000.0001)     ;
(PID.TID 0000.0001) rotateStressOnAgrid = /* rotate u,v_stress on Arakawa A-grid */
(PID.TID 0000.0001)                   F
(PID.TID 0000.0001)     ;
(PID.TID 0000.0001) cen2kel = /* conversion of deg. Centigrade to Kelvin [K] */
(PID.TID 0000.0001)                 2.731500000000000E+02
(PID.TID 0000.0001)     ;
(PID.TID 0000.0001) gravity_mks= /* gravitational acceleration [m/s^2] */
(PID.TID 0000.0001)                 9.810000000000000E+00
(PID.TID 0000.0001)     ;
(PID.TID 0000.0001) atmrho =  /* mean atmospheric density [kg/m^3] */
(PID.TID 0000.0001)                 1.200000000000000E+00
(PID.TID 0000.0001)     ;
(PID.TID 0000.0001) atmcp =  /* mean atmospheric specific heat [J/kg/K] */
(PID.TID 0000.0001)                 1.005000000000000E+03
(PID.TID 0000.0001)     ;
(PID.TID 0000.0001) flamb =  /* latent heat of evaporation [J/kg] */
(PID.TID 0000.0001)                 2.500000000000000E+06
(PID.TID 0000.0001)     ;
(PID.TID 0000.0001) flami =  /* latent heat of pure-ice melting [J/kg] */
(PID.TID 0000.0001)                 3.340000000000000E+05
(PID.TID 0000.0001)     ;
(PID.TID 0000.0001) cvapor_fac = /* const. for Saturation calculation [?] */
(PID.TID 0000.0001)                 6.403800000000000E+05
(PID.TID 0000.0001)     ;
(PID.TID 0000.0001) cvapor_exp = /* const. for Saturation calculation [?] */
(PID.TID 0000.0001)                 5.107400000000000E+03
(PID.TID 0000.0001)     ;
(PID.TID 0000.0001) cvapor_fac_ice= /* const. for Saturation calculation [?] */
(PID.TID 0000.0001)                 1.163780000000000E+07
(PID.TID 0000.0001)     ;
(PID.TID 0000.0001) cvapor_exp_ice= /* const. for Saturation calculation [?] */
(PID.TID 0000.0001)                 5.897800000000000E+03
(PID.TID 0000.0001)     ;
(PID.TID 0000.0001) humid_fac = /* humidity coef. in virtual temp. [(kg/kg)^-1] */
(PID.TID 0000.0001)                 6.060000000000000E-01
(PID.TID 0000.0001)     ;
(PID.TID 0000.0001) gamma_blk = /* adiabatic lapse rate [?] */
(PID.TID 0000.0001)                 1.000000000000000E-02
(PID.TID 0000.0001)     ;
(PID.TID 0000.0001) saltsat = /* reduction of Qsat over salty water [-] */
(PID.TID 0000.0001)                 9.800000000000000E-01
(PID.TID 0000.0001)     ;
(PID.TID 0000.0001) noNegativeEvap = /* prevent negative Evaporation */
(PID.TID 0000.0001)                   F
(PID.TID 0000.0001)     ;
(PID.TID 0000.0001) sstExtrapol = /* extrapolation coeff from lev. 1 & 2 to surf [-] */
(PID.TID 0000.0001)                 0.000000000000000E+00
(PID.TID 0000.0001)     ;
(PID.TID 0000.0001) cDrag_1 = /* coef used in drag calculation [?] */
(PID.TID 0000.0001)                 2.700000000000000E-03
(PID.TID 0000.0001)     ;
(PID.TID 0000.0001) cDrag_2 = /* coef used in drag calculation [?] */
(PID.TID 0000.0001)                 1.420000000000000E-04
(PID.TID 0000.0001)     ;
(PID.TID 0000.0001) cDrag_3 = /* coef used in drag calculation [?] */
(PID.TID 0000.0001)                 7.640000000000000E-05
(PID.TID 0000.0001)     ;
(PID.TID 0000.0001) cStanton_1 = /* coef used in Stanton number calculation [?] */
(PID.TID 0000.0001)                 3.270000000000000E-02
(PID.TID 0000.0001)     ;
(PID.TID 0000.0001) cStanton_2 = /* coef used in Stanton number calculation [?] */
(PID.TID 0000.0001)                 1.800000000000000E-02
(PID.TID 0000.0001)     ;
(PID.TID 0000.0001) cDalton = /* coef used in Dalton number calculation [?] */
(PID.TID 0000.0001)                 3.460000000000000E-02
(PID.TID 0000.0001)     ;
(PID.TID 0000.0001) exf_scal_BulkCdn= /* Drag coefficient scaling factor [-] */
(PID.TID 0000.0001)                 1.000000000000000E+00
(PID.TID 0000.0001)     ;
(PID.TID 0000.0001) zolmin = /* minimum stability parameter [?] */
(PID.TID 0000.0001)                -1.000000000000000E+02
(PID.TID 0000.0001)     ;
(PID.TID 0000.0001) psim_fac = /* coef used in turbulent fluxes calculation [-] */
(PID.TID 0000.0001)                 5.000000000000000E+00
(PID.TID 0000.0001)     ;
(PID.TID 0000.0001) zref =  /* reference height [ m ] */
(PID.TID 0000.0001)                 1.000000000000000E+01
(PID.TID 0000.0001)     ;
(PID.TID 0000.0001) hu =  /* height of mean wind [ m ] */
(PID.TID 0000.0001)                 1.000000000000000E+01
(PID.TID 0000.0001)     ;
(PID.TID 0000.0001) ht =  /* height of mean temperature [ m ] */
(PID.TID 0000.0001)                 2.000000000000000E+00
(PID.TID 0000.0001)     ;
(PID.TID 0000.0001) hq =  /* height of mean spec.humidity [ m ] */
(PID.TID 0000.0001)                 2.000000000000000E+00
(PID.TID 0000.0001)     ;
(PID.TID 0000.0001) uMin = /* minimum wind speed [m/s] */
(PID.TID 0000.0001)                 5.000000000000000E-01
(PID.TID 0000.0001)     ;
(PID.TID 0000.0001) useStabilityFct_overIce= /* transfert Coeffs over sea-ice depend on stability */
(PID.TID 0000.0001)                   F
(PID.TID 0000.0001)     ;
(PID.TID 0000.0001) exf_iceCd = /* drag coefficient over sea-ice (fixed) [-] */
(PID.TID 0000.0001)                 1.630000000000000E-03
(PID.TID 0000.0001)     ;
(PID.TID 0000.0001) exf_iceCe = /* transfert coeff. over sea-ice, for Evap (fixed) [-] */
(PID.TID 0000.0001)                 1.630000000000000E-03
(PID.TID 0000.0001)     ;
(PID.TID 0000.0001) exf_iceCh = /* transfert coeff. over sea-ice, Sens.Heat.(fixed)[-] */
(PID.TID 0000.0001)                 1.630000000000000E-03
(PID.TID 0000.0001)     ;
(PID.TID 0000.0001) exf_albedo =  /* Sea-water albedo [-] */
(PID.TID 0000.0001)                 1.000000000000000E-01
(PID.TID 0000.0001)     ;
(PID.TID 0000.0001) useExfZenAlbedo = /* Sea-water albedo varies with zenith angle */
(PID.TID 0000.0001)                   T
(PID.TID 0000.0001)     ;
(PID.TID 0000.0001) select_ZenAlbedo = /* Sea-water albedo computation method */
(PID.TID 0000.0001)                       1
(PID.TID 0000.0001)     ;
(PID.TID 0000.0001) useExfZenIncoming = /* compute incoming solar radiation */
(PID.TID 0000.0001)                   T
(PID.TID 0000.0001)     ;
(PID.TID 0000.0001) ocean_emissivity = /* longwave ocean-surface emissivity [-] */
(PID.TID 0000.0001)                 9.700000000000000E-01
(PID.TID 0000.0001)     ;
(PID.TID 0000.0001) ice_emissivity = /* longwave seaice emissivity [-] */
(PID.TID 0000.0001)                 9.500000000000000E-01
(PID.TID 0000.0001)     ;
(PID.TID 0000.0001) snow_emissivity = /* longwave snow  emissivity [-] */
(PID.TID 0000.0001)                 9.500000000000000E-01
(PID.TID 0000.0001)     ;
(PID.TID 0000.0001) 
(PID.TID 0000.0001)  EXF main CPP flags:
(PID.TID 0000.0001) 
(PID.TID 0000.0001) // USE_EXF_INTERPOLATION:              defined
(PID.TID 0000.0001) // ALLOW_ATM_TEMP:                     defined
(PID.TID 0000.0001) // ALLOW_ATM_WIND (useAtmWind):        defined
(PID.TID 0000.0001) // ALLOW_DOWNWARD_RADIATION:           defined
(PID.TID 0000.0001) // ALLOW_BULKFORMULAE:                 defined
(PID.TID 0000.0001) 
(PID.TID 0000.0001)    Zonal wind forcing starts at                          0.
(PID.TID 0000.0001)    Zonal wind forcing period is                       3600.
(PID.TID 0000.0001)    Zonal wind forcing repeat-cycle is                    0.
(PID.TID 0000.0001)    Zonal wind forcing is read from file:
(PID.TID 0000.0001)    >> era5_08_09/ERA5_u10m <<
(PID.TID 0000.0001)    interpolate "uwind" (method= 12 ):
(PID.TID 0000.0001)    lon0=   0.00000, nlon=  1280, lon_inc= 0.2812500
(PID.TID 0000.0001)    lat0= -89.78489, nlat=   640, inc(min,max)= 0.27868 0.28103
(PID.TID 0000.0001) 
(PID.TID 0000.0001)    Meridional wind forcing starts at                     0.
(PID.TID 0000.0001)    Meridional wind forcing period is                  3600.
(PID.TID 0000.0001)    Meridional wind forcing repeat-cycle is               0.
(PID.TID 0000.0001)    Meridional wind forcing is read from file:
(PID.TID 0000.0001)    >> era5_08_09/ERA5_v10m <<
(PID.TID 0000.0001)    interpolate "vwind" (method= 22 ):
(PID.TID 0000.0001)    lon0=   0.00000, nlon=  1280, lon_inc= 0.2812500
(PID.TID 0000.0001)    lat0= -89.78489, nlat=   640, inc(min,max)= 0.27868 0.28103
(PID.TID 0000.0001)     Interp. U & V comp. together: uvInterp_wind =    T
(PID.TID 0000.0001) 
(PID.TID 0000.0001)    Atmospheric temperature starts at                     0.
(PID.TID 0000.0001)    Atmospheric temperature period is                  3600.
(PID.TID 0000.0001)    Atmospheric temperature repeat-cycle is               0.
(PID.TID 0000.0001)    Atmospheric temperature is read from file:
(PID.TID 0000.0001)    >> era5_08_09/ERA5_tmp2m_degC <<
(PID.TID 0000.0001)    interpolate "atemp" (method=  1 ):
(PID.TID 0000.0001)    lon0=   0.00000, nlon=  1280, lon_inc= 0.2812500
(PID.TID 0000.0001)    lat0= -89.78489, nlat=   640, inc(min,max)= 0.27868 0.28103
(PID.TID 0000.0001) 
(PID.TID 0000.0001)    Atmospheric specific humidity starts at               0.
(PID.TID 0000.0001)    Atmospheric specific humidity period is            3600.
(PID.TID 0000.0001)    Atmospheric specific humidity rep-cycle is            0.
(PID.TID 0000.0001)    Atmospheric specific humidity is read from file:
(PID.TID 0000.0001)    >> era5_08_09/ERA5_spfh2m <<
(PID.TID 0000.0001)    interpolate "aqh" (method=  1 ):
(PID.TID 0000.0001)    lon0=   0.00000, nlon=  1280, lon_inc= 0.2812500
(PID.TID 0000.0001)    lat0= -89.78489, nlat=   640, inc(min,max)= 0.27868 0.28103
(PID.TID 0000.0001) 
(PID.TID 0000.0001) // ALLOW_READ_TURBFLUXES:          NOT defined
(PID.TID 0000.0001) // EXF_READ_EVAP:                  NOT defined
(PID.TID 0000.0001) 
(PID.TID 0000.0001)    Precipitation data starts at                       1800.
(PID.TID 0000.0001)    Precipitation data period is                       3600.
(PID.TID 0000.0001)    Precipitation data repeat-cycle is                    0.
(PID.TID 0000.0001)    Precipitation data is read from file:
(PID.TID 0000.0001)    >> era5_08_09/ERA5_rain <<
(PID.TID 0000.0001)    interpolate "precip" (method=  1 ):
(PID.TID 0000.0001)    lon0=   0.00000, nlon=  1280, lon_inc= 0.2812500
(PID.TID 0000.0001)    lat0= -89.78489, nlat=   640, inc(min,max)= 0.27868 0.28103
(PID.TID 0000.0001) 
(PID.TID 0000.0001) // ALLOW_RUNOFF:                       defined
(PID.TID 0000.0001)    Runoff data period is                               -12.
(PID.TID 0000.0001)    Runoff data is read from file:
(PID.TID 0000.0001)    >> runoff1p2472-360x180x12.bin <<
(PID.TID 0000.0001)    interpolate "runoff" (method=  1 ):
(PID.TID 0000.0001)    lon0=   0.50000, nlon=   360, lon_inc= 1.0000000
(PID.TID 0000.0001)    lat0= -89.50000, nlat=   180, lat_inc= 1.0000000
(PID.TID 0000.0001) 
(PID.TID 0000.0001) // ALLOW_RUNOFTEMP:                NOT defined
(PID.TID 0000.0001) // ALLOW_SALTFLX:                      defined
(PID.TID 0000.0001) 
(PID.TID 0000.0001)    Downward shortwave flux starts at                  1800.
(PID.TID 0000.0001)    Downward shortwave flux period is                  3600.
(PID.TID 0000.0001)    Downward shortwave flux repeat-cycle is               0.
(PID.TID 0000.0001)    Downward shortwave flux is read from file:
(PID.TID 0000.0001)    >> era5_08_09/ERA5_dsw <<
(PID.TID 0000.0001)    interpolate "swdown" (method=  1 ):
(PID.TID 0000.0001)    lon0=   0.00000, nlon=  1280, lon_inc= 0.2812500
(PID.TID 0000.0001)    lat0= -89.78489, nlat=   640, inc(min,max)= 0.27868 0.28103
(PID.TID 0000.0001) 
(PID.TID 0000.0001)    Downward longwave flux starts at                   1800.
(PID.TID 0000.0001)    Downward longwave flux period is                   3600.
(PID.TID 0000.0001)    Downward longwave flux repeat-cycle is                0.
(PID.TID 0000.0001)    Downward longwave flux is read from file:
(PID.TID 0000.0001)    >> era5_08_09/ERA5_dlw <<
(PID.TID 0000.0001)    interpolate "lwdown" (method=  1 ):
(PID.TID 0000.0001)    lon0=   0.00000, nlon=  1280, lon_inc= 0.2812500
(PID.TID 0000.0001)    lat0= -89.78489, nlat=   640, inc(min,max)= 0.27868 0.28103
(PID.TID 0000.0001) 
(PID.TID 0000.0001)    Atmospheric pressure forcing starts at                0.
(PID.TID 0000.0001)    Atmospheric pressure forcing period is             3600.
(PID.TID 0000.0001)    Atmospheric pressure forcing rep-cycle is             0.
(PID.TID 0000.0001)    Atmospheric pressure forcing is read from file:
(PID.TID 0000.0001)    >> era5_08_09/ERA5_pres <<
(PID.TID 0000.0001)    interpolate "apressure" (method=  1 ):
(PID.TID 0000.0001)    lon0=   0.00000, nlon=  1280, lon_inc= 0.2812500
(PID.TID 0000.0001)    lat0= -89.78489, nlat=   640, inc(min,max)= 0.27868 0.28103
(PID.TID 0000.0001) 
(PID.TID 0000.0001)    Tidal geopotential starts at                          0.
(PID.TID 0000.0001)    Tidal geopotential period is                       3600.
(PID.TID 0000.0001)    Tidal geopotential repeat-cycle is                    0.
(PID.TID 0000.0001)    Tidal geopotential is read from file:
(PID.TID 0000.0001)    >> tide_IAU_EARTH <<
(PID.TID 0000.0001)    interpolate "tidePot" (method=  1 ):
(PID.TID 0000.0001)    lon0=   0.00000, nlon=   360, lon_inc= 1.0000000
(PID.TID 0000.0001)    lat0= -90.00000, nlat=   181, lat_inc= 1.0000000
(PID.TID 0000.0001) 
(PID.TID 0000.0001) // =======================================================
(PID.TID 0000.0001) // External forcing (EXF) climatology configuration :
(PID.TID 0000.0001) // =======================================================
(PID.TID 0000.0001) 
(PID.TID 0000.0001) // ALLOW_CLIMSST_RELAXATION:       NOT defined
(PID.TID 0000.0001) 
(PID.TID 0000.0001) // ALLOW_CLIMSSS_RELAXATION:       NOT defined
(PID.TID 0000.0001) 
(PID.TID 0000.0001) // =======================================================
(PID.TID 0000.0001) // External forcing (EXF) configuration  >>> END <<<
(PID.TID 0000.0001) // =======================================================
(PID.TID 0000.0001) 
(PID.TID 0000.0001) ------------------------------------------------------------
(PID.TID 0000.0001) DIAGNOSTICS_SET_LEVELS: done
(PID.TID 0000.0001)  Total Nb of available Diagnostics: ndiagt=   242
(PID.TID 0000.0001)  write list of available Diagnostics to file: available_diagnostics.log
(PID.TID 0000.0001) SETDIAG: Allocate  1 x  1 Levels for Diagnostic #    77 MXLDEPTH
(PID.TID 0000.0001) SETDIAG: Allocate  1 x  1 Levels for Diagnostic #   202 KPPhbl
(PID.TID 0000.0001) SETDIAG: Allocate  1 x  1 Levels for Diagnostic #   185 EXFuwind
(PID.TID 0000.0001) SETDIAG: Allocate  1 x  1 Levels for Diagnostic #   186 EXFvwind
(PID.TID 0000.0001) SETDIAG: Allocate100 x  1 Levels for Diagnostic #    26 THETA
(PID.TID 0000.0001) SETDIAG: Allocate100 x  1 Levels for Diagnostic #    27 SALT
(PID.TID 0000.0001) SETDIAG: Allocate100 x  1 Levels for Diagnostic #    30 UVEL
(PID.TID 0000.0001) SETDIAG: Allocate100 x  1 Levels for Diagnostic #    31 VVEL
(PID.TID 0000.0001) SETDIAG: Allocate100 x  1 Levels for Diagnostic #    32 WVEL
(PID.TID 0000.0001) SETDIAG: Allocate100 x  1 Levels for Diagnostic #   200 KPPdiffT
(PID.TID 0000.0001) SETDIAG: Allocate100 x  1 Levels for Diagnostic #   214 TRAC01
(PID.TID 0000.0001) SETDIAG: Allocate100 x  1 Levels for Diagnostic #   228 TRAC02
(PID.TID 0000.0001)   space allocated for all diagnostics:     804 levels
(PID.TID 0000.0001)   set mate pointer for diag #    30  UVEL     , Parms: UUR     MR , mate:    31
(PID.TID 0000.0001)   set mate pointer for diag #    31  VVEL     , Parms: VVR     MR , mate:    30
(PID.TID 0000.0001) DIAGNOSTICS_SET_POINTERS: Set levels for Outp.Stream: diags/surface
(PID.TID 0000.0001)  Levels:       1.
(PID.TID 0000.0001) DIAGNOSTICS_SET_POINTERS: done
(PID.TID 0000.0001) ------------------------------------------------------------
(PID.TID 0000.0001) DIAGSTATS_SET_REGIONS: define no region
(PID.TID 0000.0001) ------------------------------------------------------------
(PID.TID 0000.0001)   space allocated for all stats-diags:       0 levels
(PID.TID 0000.0001) DIAGSTATS_SET_POINTERS: done
(PID.TID 0000.0001) ------------------------------------------------------------
(PID.TID 0000.0001) %MON fCori_max                    =   1.0041264314410E-04
(PID.TID 0000.0001) %MON fCori_min                    =   6.5906345106118E-05
(PID.TID 0000.0001) %MON fCori_mean                   =   8.3413440584148E-05
(PID.TID 0000.0001) %MON fCori_sd                     =   9.8662623595679E-06
(PID.TID 0000.0001) %MON fCoriG_max                   =   1.0039341192656E-04
(PID.TID 0000.0001) %MON fCoriG_min                   =   6.5882690911173E-05
(PID.TID 0000.0001) %MON fCoriG_mean                  =   8.3391800141895E-05
(PID.TID 0000.0001) %MON fCoriG_sd                    =   9.8675218307149E-06
(PID.TID 0000.0001) %MON fCoriCos_max                 =   1.3010142132033E-04
(PID.TID 0000.0001) %MON fCoriCos_min                 =   1.0577016238823E-04
(PID.TID 0000.0001) %MON fCoriCos_mean                =   1.1902339494225E-04
(PID.TID 0000.0001) %MON fCoriCos_sd                  =   6.9507127840781E-06
(PID.TID 0000.0001) INI_CG2D: CG2D normalisation factor =  1.4893423638057384E-04
(PID.TID 0000.0001) INI_CG2D: cg2dTolerance = 2.116840409930548E-11 (Area=1.1370604698E+13)
(PID.TID 0000.0001) 
(PID.TID 0000.0001) // =======================================================
(PID.TID 0000.0001) // Model configuration
(PID.TID 0000.0001) // =======================================================
(PID.TID 0000.0001) //
(PID.TID 0000.0001) // "Physical" paramters ( PARM01 in namelist )
(PID.TID 0000.0001) //
(PID.TID 0000.0001) buoyancyRelation = /* Type of relation to get Buoyancy */
(PID.TID 0000.0001)               'OCEANIC'
(PID.TID 0000.0001)     ;
(PID.TID 0000.0001) fluidIsAir   =  /* fluid major constituent is Air */
(PID.TID 0000.0001)                   F
(PID.TID 0000.0001)     ;
(PID.TID 0000.0001) fluidIsWater =  /* fluid major constituent is Water */
(PID.TID 0000.0001)                   T
(PID.TID 0000.0001)     ;
(PID.TID 0000.0001) usingPCoords =  /* use p (or p*) vertical coordinate */
(PID.TID 0000.0001)                   F
(PID.TID 0000.0001)     ;
(PID.TID 0000.0001) usingZCoords =  /* use z (or z*) vertical coordinate */
(PID.TID 0000.0001)                   T
(PID.TID 0000.0001)     ;
(PID.TID 0000.0001) tRef =   /* Reference temperature profile ( oC or K ) */
(PID.TID 0000.0001)     5 @  1.889000000000000E+01,             /* K =  1:  5 */
(PID.TID 0000.0001)                 1.887000000000000E+01,      /* K =  6 */
(PID.TID 0000.0001)                 1.885000000000000E+01,      /* K =  7 */
(PID.TID 0000.0001)                 1.882000000000000E+01,      /* K =  8 */
(PID.TID 0000.0001)                 1.880000000000000E+01,      /* K =  9 */
(PID.TID 0000.0001)                 1.873000000000000E+01,      /* K = 10 */
(PID.TID 0000.0001)                 1.863000000000000E+01,      /* K = 11 */
(PID.TID 0000.0001)                 1.849000000000000E+01,      /* K = 12 */
(PID.TID 0000.0001)                 1.828000000000000E+01,      /* K = 13 */
(PID.TID 0000.0001)                 1.808000000000000E+01,      /* K = 14 */
(PID.TID 0000.0001)                 1.786000000000000E+01,      /* K = 15 */
(PID.TID 0000.0001)                 1.763000000000000E+01,      /* K = 16 */
(PID.TID 0000.0001)                 1.740000000000000E+01,      /* K = 17 */
(PID.TID 0000.0001)                 1.718000000000000E+01,      /* K = 18 */
(PID.TID 0000.0001)                 1.695000000000000E+01,      /* K = 19 */
(PID.TID 0000.0001)                 1.673000000000000E+01,      /* K = 20 */
(PID.TID 0000.0001)                 1.652000000000000E+01,      /* K = 21 */
(PID.TID 0000.0001)                 1.631000000000000E+01,      /* K = 22 */
(PID.TID 0000.0001)                 1.610000000000000E+01,      /* K = 23 */
(PID.TID 0000.0001)                 1.589000000000000E+01,      /* K = 24 */
(PID.TID 0000.0001)                 1.569000000000000E+01,      /* K = 25 */
(PID.TID 0000.0001)                 1.549000000000000E+01,      /* K = 26 */
(PID.TID 0000.0001)                 1.528000000000000E+01,      /* K = 27 */
(PID.TID 0000.0001)                 1.508000000000000E+01,      /* K = 28 */
(PID.TID 0000.0001)                 1.488000000000000E+01,      /* K = 29 */
(PID.TID 0000.0001)                 1.467000000000000E+01,      /* K = 30 */
(PID.TID 0000.0001)                 1.447000000000000E+01,      /* K = 31 */
(PID.TID 0000.0001)                 1.425000000000000E+01,      /* K = 32 */
(PID.TID 0000.0001)                 1.403000000000000E+01,      /* K = 33 */
(PID.TID 0000.0001)                 1.380000000000000E+01,      /* K = 34 */
(PID.TID 0000.0001)                 1.355000000000000E+01,      /* K = 35 */
(PID.TID 0000.0001)                 1.329000000000000E+01,      /* K = 36 */
(PID.TID 0000.0001)                 1.301000000000000E+01,      /* K = 37 */
(PID.TID 0000.0001)                 1.273000000000000E+01,      /* K = 38 */
(PID.TID 0000.0001)                 1.242000000000000E+01,      /* K = 39 */
(PID.TID 0000.0001)                 1.211000000000000E+01,      /* K = 40 */
(PID.TID 0000.0001)                 1.178000000000000E+01,      /* K = 41 */
(PID.TID 0000.0001)                 1.143000000000000E+01,      /* K = 42 */
(PID.TID 0000.0001)                 1.107000000000000E+01,      /* K = 43 */
(PID.TID 0000.0001)                 1.070000000000000E+01,      /* K = 44 */
(PID.TID 0000.0001)                 1.031000000000000E+01,      /* K = 45 */
(PID.TID 0000.0001)                 9.930000000000000E+00,      /* K = 46 */
(PID.TID 0000.0001)                 9.529999999999999E+00,      /* K = 47 */
(PID.TID 0000.0001)                 9.109999999999999E+00,      /* K = 48 */
(PID.TID 0000.0001)                 8.710000000000001E+00,      /* K = 49 */
(PID.TID 0000.0001)                 8.289999999999999E+00,      /* K = 50 */
(PID.TID 0000.0001)                 7.890000000000000E+00,      /* K = 51 */
(PID.TID 0000.0001)                 7.510000000000000E+00,      /* K = 52 */
(PID.TID 0000.0001)                 7.130000000000000E+00,      /* K = 53 */
(PID.TID 0000.0001)                 6.780000000000000E+00,      /* K = 54 */
(PID.TID 0000.0001)                 6.440000000000000E+00,      /* K = 55 */
(PID.TID 0000.0001)                 6.110000000000000E+00,      /* K = 56 */
(PID.TID 0000.0001)                 5.810000000000000E+00,      /* K = 57 */
(PID.TID 0000.0001)                 5.510000000000000E+00,      /* K = 58 */
(PID.TID 0000.0001)                 5.230000000000000E+00,      /* K = 59 */
(PID.TID 0000.0001)                 4.970000000000000E+00,      /* K = 60 */
(PID.TID 0000.0001)                 4.730000000000000E+00,      /* K = 61 */
(PID.TID 0000.0001)                 4.510000000000000E+00,      /* K = 62 */
(PID.TID 0000.0001)                 4.300000000000000E+00,      /* K = 63 */
(PID.TID 0000.0001)                 4.110000000000000E+00,      /* K = 64 */
(PID.TID 0000.0001)                 3.940000000000000E+00,      /* K = 65 */
(PID.TID 0000.0001)                 3.780000000000000E+00,      /* K = 66 */
(PID.TID 0000.0001)                 3.630000000000000E+00,      /* K = 67 */
(PID.TID 0000.0001)                 3.500000000000000E+00,      /* K = 68 */
(PID.TID 0000.0001)                 3.380000000000000E+00,      /* K = 69 */
(PID.TID 0000.0001)                 3.250000000000000E+00,      /* K = 70 */
(PID.TID 0000.0001)                 3.140000000000000E+00,      /* K = 71 */
(PID.TID 0000.0001)                 3.040000000000000E+00,      /* K = 72 */
(PID.TID 0000.0001)                 2.940000000000000E+00,      /* K = 73 */
(PID.TID 0000.0001)                 2.830000000000000E+00,      /* K = 74 */
(PID.TID 0000.0001)                 2.740000000000000E+00,      /* K = 75 */
(PID.TID 0000.0001)                 2.640000000000000E+00,      /* K = 76 */
(PID.TID 0000.0001)                 2.540000000000000E+00,      /* K = 77 */
(PID.TID 0000.0001)                 2.450000000000000E+00,      /* K = 78 */
(PID.TID 0000.0001)                 2.360000000000000E+00,      /* K = 79 */
(PID.TID 0000.0001)                 2.270000000000000E+00,      /* K = 80 */
(PID.TID 0000.0001)                 2.190000000000000E+00,      /* K = 81 */
(PID.TID 0000.0001)                 2.100000000000000E+00,      /* K = 82 */
(PID.TID 0000.0001)                 2.030000000000000E+00,      /* K = 83 */
(PID.TID 0000.0001)                 1.950000000000000E+00,      /* K = 84 */
(PID.TID 0000.0001)                 1.860000000000000E+00,      /* K = 85 */
(PID.TID 0000.0001)                 1.780000000000000E+00,      /* K = 86 */
(PID.TID 0000.0001)                 1.700000000000000E+00,      /* K = 87 */
(PID.TID 0000.0001)                 1.630000000000000E+00,      /* K = 88 */
(PID.TID 0000.0001)                 1.550000000000000E+00,      /* K = 89 */
(PID.TID 0000.0001)                 1.480000000000000E+00,      /* K = 90 */
(PID.TID 0000.0001)                 1.410000000000000E+00,      /* K = 91 */
(PID.TID 0000.0001)                 1.340000000000000E+00,      /* K = 92 */
(PID.TID 0000.0001)                 1.270000000000000E+00,      /* K = 93 */
(PID.TID 0000.0001)                 1.200000000000000E+00,      /* K = 94 */
(PID.TID 0000.0001)                 1.130000000000000E+00,      /* K = 95 */
(PID.TID 0000.0001)                 1.060000000000000E+00,      /* K = 96 */
(PID.TID 0000.0001)                 1.000000000000000E+00,      /* K = 97 */
(PID.TID 0000.0001)                 9.600000000000000E-01,      /* K = 98 */
(PID.TID 0000.0001)                 9.300000000000000E-01,      /* K = 99 */
(PID.TID 0000.0001)                 9.100000000000000E-01       /* K =100 */
(PID.TID 0000.0001)     ;
(PID.TID 0000.0001) sRef =   /* Reference salinity profile ( psu ) */
(PID.TID 0000.0001)     6 @  3.484000000000000E+01,             /* K =  1:  6 */
(PID.TID 0000.0001)     3 @  3.485000000000000E+01,             /* K =  7:  9 */
(PID.TID 0000.0001)                 3.486000000000000E+01,      /* K = 10 */
(PID.TID 0000.0001)                 3.487000000000000E+01,      /* K = 11 */
(PID.TID 0000.0001)                 3.488000000000000E+01,      /* K = 12 */
(PID.TID 0000.0001)                 3.490000000000000E+01,      /* K = 13 */
(PID.TID 0000.0001)                 3.491000000000000E+01,      /* K = 14 */
(PID.TID 0000.0001)                 3.493000000000000E+01,      /* K = 15 */
(PID.TID 0000.0001)                 3.495000000000000E+01,      /* K = 16 */
(PID.TID 0000.0001)                 3.496000000000000E+01,      /* K = 17 */
(PID.TID 0000.0001)                 3.498000000000000E+01,      /* K = 18 */
(PID.TID 0000.0001)                 3.499000000000000E+01,      /* K = 19 */
(PID.TID 0000.0001)                 3.500000000000000E+01,      /* K = 20 */
(PID.TID 0000.0001)                 3.501000000000000E+01,      /* K = 21 */
(PID.TID 0000.0001)                 3.502000000000000E+01,      /* K = 22 */
(PID.TID 0000.0001)                 3.503000000000000E+01,      /* K = 23 */
(PID.TID 0000.0001)                 3.504000000000000E+01,      /* K = 24 */
(PID.TID 0000.0001)                 3.505000000000000E+01,      /* K = 25 */
(PID.TID 0000.0001)                 3.506000000000000E+01,      /* K = 26 */
(PID.TID 0000.0001)     7 @  3.507000000000000E+01,             /* K = 27: 33 */
(PID.TID 0000.0001)                 3.506000000000000E+01,      /* K = 34 */
(PID.TID 0000.0001)                 3.505000000000000E+01,      /* K = 35 */
(PID.TID 0000.0001)                 3.504000000000000E+01,      /* K = 36 */
(PID.TID 0000.0001)                 3.503000000000000E+01,      /* K = 37 */
(PID.TID 0000.0001)                 3.502000000000000E+01,      /* K = 38 */
(PID.TID 0000.0001)                 3.501000000000000E+01,      /* K = 39 */
(PID.TID 0000.0001)                 3.499000000000000E+01,      /* K = 40 */
(PID.TID 0000.0001)                 3.497000000000000E+01,      /* K = 41 */
(PID.TID 0000.0001)                 3.495000000000000E+01,      /* K = 42 */
(PID.TID 0000.0001)                 3.492000000000000E+01,      /* K = 43 */
(PID.TID 0000.0001)                 3.490000000000000E+01,      /* K = 44 */
(PID.TID 0000.0001)                 3.487000000000000E+01,      /* K = 45 */
(PID.TID 0000.0001)                 3.484000000000000E+01,      /* K = 46 */
(PID.TID 0000.0001)                 3.481000000000000E+01,      /* K = 47 */
(PID.TID 0000.0001)                 3.478000000000000E+01,      /* K = 48 */
(PID.TID 0000.0001)                 3.475000000000000E+01,      /* K = 49 */
(PID.TID 0000.0001)                 3.472000000000000E+01,      /* K = 50 */
(PID.TID 0000.0001)                 3.469000000000000E+01,      /* K = 51 */
(PID.TID 0000.0001)                 3.467000000000000E+01,      /* K = 52 */
(PID.TID 0000.0001)                 3.465000000000000E+01,      /* K = 53 */
(PID.TID 0000.0001)                 3.462000000000000E+01,      /* K = 54 */
(PID.TID 0000.0001)                 3.461000000000000E+01,      /* K = 55 */
(PID.TID 0000.0001)                 3.460000000000000E+01,      /* K = 56 */
(PID.TID 0000.0001)     2 @  3.459000000000000E+01,             /* K = 57: 58 */
(PID.TID 0000.0001)                 3.458000000000000E+01,      /* K = 59 */
(PID.TID 0000.0001)     2 @  3.459000000000000E+01,             /* K = 60: 61 */
(PID.TID 0000.0001)     2 @  3.460000000000000E+01,             /* K = 62: 63 */
(PID.TID 0000.0001)                 3.461000000000000E+01,      /* K = 64 */
(PID.TID 0000.0001)                 3.462000000000000E+01,      /* K = 65 */
(PID.TID 0000.0001)                 3.463000000000000E+01,      /* K = 66 */
(PID.TID 0000.0001)                 3.464000000000000E+01,      /* K = 67 */
(PID.TID 0000.0001)                 3.465000000000000E+01,      /* K = 68 */
(PID.TID 0000.0001)                 3.466000000000000E+01,      /* K = 69 */
(PID.TID 0000.0001)     2 @  3.467000000000000E+01,             /* K = 70: 71 */
(PID.TID 0000.0001)                 3.468000000000000E+01,      /* K = 72 */
(PID.TID 0000.0001)                 3.469000000000000E+01,      /* K = 73 */
(PID.TID 0000.0001)                 3.470000000000000E+01,      /* K = 74 */
(PID.TID 0000.0001)     2 @  3.471000000000000E+01,             /* K = 75: 76 */
(PID.TID 0000.0001)     2 @  3.472000000000000E+01,             /* K = 77: 78 */
(PID.TID 0000.0001)     3 @  3.473000000000000E+01,             /* K = 79: 81 */
(PID.TID 0000.0001)     4 @  3.474000000000000E+01,             /* K = 82: 85 */
(PID.TID 0000.0001)                 3.475000000000000E+01,      /* K = 86 */
(PID.TID 0000.0001)     8 @  3.474000000000000E+01,             /* K = 87: 94 */
(PID.TID 0000.0001)     6 @  3.473000000000000E+01              /* K = 95:100 */
(PID.TID 0000.0001)     ;
(PID.TID 0000.0001) useStrainTensionVisc= /* Use StrainTension Form of Viscous Operator */
(PID.TID 0000.0001)                   F
(PID.TID 0000.0001)     ;
(PID.TID 0000.0001) useVariableVisc = /* Use variable horizontal viscosity */
(PID.TID 0000.0001)                   T
(PID.TID 0000.0001)     ;
(PID.TID 0000.0001) useHarmonicVisc = /* Use harmonic horizontal viscosity */
(PID.TID 0000.0001)                   F
(PID.TID 0000.0001)     ;
(PID.TID 0000.0001) useBiharmonicVisc= /* Use biharmonic horiz.  viscosity */
(PID.TID 0000.0001)                   T
(PID.TID 0000.0001)     ;
(PID.TID 0000.0001) useSmag3D = /* Use isotropic 3-D Smagorinsky viscosity */
(PID.TID 0000.0001)                   F
(PID.TID 0000.0001)     ;
(PID.TID 0000.0001) viscAh  =   /* Lateral harmonic viscosity ( m^2/s ) */
(PID.TID 0000.0001)                 0.000000000000000E+00
(PID.TID 0000.0001)     ;
(PID.TID 0000.0001) viscAhMax = /* Maximum lateral harmonic viscosity ( m^2/s ) */
(PID.TID 0000.0001)                 1.000000000000000E+21
(PID.TID 0000.0001)     ;
(PID.TID 0000.0001) viscAhGrid = /* Grid dependent lateral harmonic viscosity ( non-dim. ) */
(PID.TID 0000.0001)                 0.000000000000000E+00
(PID.TID 0000.0001)     ;
(PID.TID 0000.0001) useFullLeith = /* Use Full Form of Leith Viscosity on/off flag*/
(PID.TID 0000.0001)                   F
(PID.TID 0000.0001)     ;
(PID.TID 0000.0001) useAreaViscLength = /* Use area for visc length instead of geom. mean*/
(PID.TID 0000.0001)                   T
(PID.TID 0000.0001)     ;
(PID.TID 0000.0001) viscC2leith = /* Leith harmonic visc. factor (on grad(vort),non-dim.) */
(PID.TID 0000.0001)                 0.000000000000000E+00
(PID.TID 0000.0001)     ;
(PID.TID 0000.0001) viscC2leithD = /* Leith harmonic viscosity factor (on grad(div),non-dim.)*/
(PID.TID 0000.0001)                 0.000000000000000E+00
(PID.TID 0000.0001)     ;
(PID.TID 0000.0001) viscC2smag = /* Smagorinsky harmonic viscosity factor (non-dim.) */
(PID.TID 0000.0001)                 0.000000000000000E+00
(PID.TID 0000.0001)     ;
(PID.TID 0000.0001) viscA4  =   /* Lateral biharmonic viscosity ( m^4/s ) */
(PID.TID 0000.0001)                 0.000000000000000E+00
(PID.TID 0000.0001)     ;
(PID.TID 0000.0001) viscA4Max = /* Maximum biharmonic viscosity ( m^2/s ) */
(PID.TID 0000.0001)                 1.000000000000000E+21
(PID.TID 0000.0001)     ;
(PID.TID 0000.0001) viscA4Grid = /* Grid dependent biharmonic viscosity ( non-dim. ) */
(PID.TID 0000.0001)                 0.000000000000000E+00
(PID.TID 0000.0001)     ;
(PID.TID 0000.0001) viscC4leith = /* Leith biharm viscosity factor (on grad(vort), non-dim.)*/
(PID.TID 0000.0001)                 2.000000000000000E+00
(PID.TID 0000.0001)     ;
(PID.TID 0000.0001) viscC4leithD = /* Leith biharm viscosity factor (on grad(div), non-dim.) */
(PID.TID 0000.0001)                 2.000000000000000E+00
(PID.TID 0000.0001)     ;
(PID.TID 0000.0001) viscC4Smag = /* Smagorinsky biharm viscosity factor (non-dim) */
(PID.TID 0000.0001)                 0.000000000000000E+00
(PID.TID 0000.0001)     ;
(PID.TID 0000.0001) no_slip_sides =  /* Viscous BCs: No-slip sides */
(PID.TID 0000.0001)                   T
(PID.TID 0000.0001)     ;
(PID.TID 0000.0001) sideDragFactor = /* side-drag scaling factor (non-dim) */
(PID.TID 0000.0001)                 2.000000000000000E+00
(PID.TID 0000.0001)     ;
(PID.TID 0000.0001) viscArNr = /* vertical profile of vertical viscosity ( m^2/s )*/
(PID.TID 0000.0001)   100 @  5.000000000000000E-04              /* K =  1:100 */
(PID.TID 0000.0001)     ;
(PID.TID 0000.0001) no_slip_bottom =  /* Viscous BCs: No-slip bottom */
(PID.TID 0000.0001)                   T
(PID.TID 0000.0001)     ;
(PID.TID 0000.0001) bottomVisc_pCell = /* Partial-cell in bottom Visc. BC */
(PID.TID 0000.0001)                   F
(PID.TID 0000.0001)     ;
(PID.TID 0000.0001) bottomDragLinear = /* linear bottom-drag coefficient ( m/s ) */
(PID.TID 0000.0001)                 0.000000000000000E+00
(PID.TID 0000.0001)     ;
(PID.TID 0000.0001) bottomDragQuadratic = /* quadratic bottom-drag coefficient (-) */
(PID.TID 0000.0001)                 2.000000000000000E-03
(PID.TID 0000.0001)     ;
(PID.TID 0000.0001) selectBotDragQuadr = /* select quadratic bottom drag options */
(PID.TID 0000.0001)                       0
(PID.TID 0000.0001)     ;
(PID.TID 0000.0001) diffKhT =   /* Laplacian diffusion of heat laterally ( m^2/s ) */
(PID.TID 0000.0001)                 0.000000000000000E+00
(PID.TID 0000.0001)     ;
(PID.TID 0000.0001) diffK4T =   /* Biharmonic diffusion of heat laterally ( m^4/s ) */
(PID.TID 0000.0001)                 0.000000000000000E+00
(PID.TID 0000.0001)     ;
(PID.TID 0000.0001) diffKhS =   /* Laplacian diffusion of salt laterally ( m^2/s ) */
(PID.TID 0000.0001)                 0.000000000000000E+00
(PID.TID 0000.0001)     ;
(PID.TID 0000.0001) diffK4S =   /* Biharmonic diffusion of salt laterally ( m^4/s ) */
(PID.TID 0000.0001)                 0.000000000000000E+00
(PID.TID 0000.0001)     ;
(PID.TID 0000.0001) diffKrNrT = /* vertical profile of vertical diffusion of Temp ( m^2/s )*/
(PID.TID 0000.0001)   100 @  1.000000000000000E-05              /* K =  1:100 */
(PID.TID 0000.0001)     ;
(PID.TID 0000.0001) diffKrNrS = /* vertical profile of vertical diffusion of Salt ( m^2/s )*/
(PID.TID 0000.0001)   100 @  1.000000000000000E-05              /* K =  1:100 */
(PID.TID 0000.0001)     ;
(PID.TID 0000.0001) diffKrBL79surf = /* Surface diffusion for Bryan and Lewis 79 ( m^2/s ) */
(PID.TID 0000.0001)                 0.000000000000000E+00
(PID.TID 0000.0001)     ;
(PID.TID 0000.0001) diffKrBL79deep = /* Deep diffusion for Bryan and Lewis 1979 ( m^2/s ) */
(PID.TID 0000.0001)                 0.000000000000000E+00
(PID.TID 0000.0001)     ;
(PID.TID 0000.0001) diffKrBL79scl = /* Depth scale for Bryan and Lewis 1979 ( m ) */
(PID.TID 0000.0001)                 2.000000000000000E+02
(PID.TID 0000.0001)     ;
(PID.TID 0000.0001) diffKrBL79Ho = /* Turning depth for Bryan and Lewis 1979 ( m ) */
(PID.TID 0000.0001)                -2.000000000000000E+03
(PID.TID 0000.0001)     ;
(PID.TID 0000.0001) ivdc_kappa = /* Implicit Vertical Diffusivity for Convection ( m^2/s) */
(PID.TID 0000.0001)                 0.000000000000000E+00
(PID.TID 0000.0001)     ;
(PID.TID 0000.0001) hMixCriteria=  /* Criteria for mixed-layer diagnostic */
(PID.TID 0000.0001)                -8.000000000000000E-01
(PID.TID 0000.0001)     ;
(PID.TID 0000.0001) dRhoSmall =  /* Parameter for mixed-layer diagnostic */
(PID.TID 0000.0001)                 1.000000000000000E-06
(PID.TID 0000.0001)     ;
(PID.TID 0000.0001) hMixSmooth=  /* Smoothing parameter for mixed-layer diagnostic */
(PID.TID 0000.0001)                 0.000000000000000E+00
(PID.TID 0000.0001)     ;
(PID.TID 0000.0001) eosType =  /* Type of Equation of State */
(PID.TID 0000.0001)               'JMD95Z'
(PID.TID 0000.0001)     ;
(PID.TID 0000.0001) selectP_inEOS_Zc = /* select pressure to use in EOS (0,1,2,3) */
(PID.TID 0000.0001)                       0
(PID.TID 0000.0001)     0= -g*rhoConst*z ; 1= pRef (from tRef,sRef); 2= Hyd P ; 3= Hyd+NH P
(PID.TID 0000.0001)     ;
(PID.TID 0000.0001) HeatCapacity_Cp =  /* Specific heat capacity ( J/kg/K ) */
(PID.TID 0000.0001)                 3.994000000000000E+03
(PID.TID 0000.0001)     ;
(PID.TID 0000.0001) celsius2K = /* 0 degree Celsius converted to Kelvin ( K ) */
(PID.TID 0000.0001)                 2.731500000000000E+02
(PID.TID 0000.0001)     ;
(PID.TID 0000.0001) rhoConst  = /* Reference density (Boussinesq)  ( kg/m^3 ) */
(PID.TID 0000.0001)                 1.029000000000000E+03
(PID.TID 0000.0001)     ;
(PID.TID 0000.0001) rhoFacC = /* normalized Reference density @ cell-Center (-) */
(PID.TID 0000.0001)   100 @  1.000000000000000E+00              /* K =  1:100 */
(PID.TID 0000.0001)     ;
(PID.TID 0000.0001) rhoFacF = /* normalized Reference density @ W-Interface (-) */
(PID.TID 0000.0001)   101 @  1.000000000000000E+00              /* K =  1:101 */
(PID.TID 0000.0001)     ;
(PID.TID 0000.0001) rhoConstFresh = /* Fresh-water reference density ( kg/m^3 ) */
(PID.TID 0000.0001)                 1.000000000000000E+03
(PID.TID 0000.0001)     ;
(PID.TID 0000.0001) gravity =   /* Gravitational acceleration ( m/s^2 ) */
(PID.TID 0000.0001)                 9.810000000000000E+00
(PID.TID 0000.0001)     ;
(PID.TID 0000.0001) gBaro =   /* Barotropic gravity ( m/s^2 ) */
(PID.TID 0000.0001)                 9.810000000000000E+00
(PID.TID 0000.0001)     ;
(PID.TID 0000.0001) gravFacC = /* gravity factor (vs surf.) @ cell-Center (-) */
(PID.TID 0000.0001)   100 @  1.000000000000000E+00              /* K =  1:100 */
(PID.TID 0000.0001)     ;
(PID.TID 0000.0001) gravFacF = /* gravity factor (vs surf.) @ W-Interface (-) */
(PID.TID 0000.0001)   101 @  1.000000000000000E+00              /* K =  1:101 */
(PID.TID 0000.0001)     ;
(PID.TID 0000.0001) rotationPeriod =   /* Rotation Period ( s ) */
(PID.TID 0000.0001)                 8.616400000000000E+04
(PID.TID 0000.0001)     ;
(PID.TID 0000.0001) omega =   /* Angular velocity ( rad/s ) */
(PID.TID 0000.0001)                 7.292123516990375E-05
(PID.TID 0000.0001)     ;
(PID.TID 0000.0001) f0 =   /* Reference coriolis parameter ( 1/s ) */
(PID.TID 0000.0001)                 1.000000000000000E-04
(PID.TID 0000.0001)     ;
(PID.TID 0000.0001) beta =   /* Beta ( 1/(m.s) ) */
(PID.TID 0000.0001)                 9.999999999999999E-12
(PID.TID 0000.0001)     ;
(PID.TID 0000.0001) fPrime =   /* Second coriolis parameter ( 1/s ) */
(PID.TID 0000.0001)                 0.000000000000000E+00
(PID.TID 0000.0001)     ;
(PID.TID 0000.0001) rigidLid =   /* Rigid lid on/off flag */
(PID.TID 0000.0001)                   F
(PID.TID 0000.0001)     ;
(PID.TID 0000.0001) implicitFreeSurface =   /* Implicit free surface on/off flag */
(PID.TID 0000.0001)                   T
(PID.TID 0000.0001)     ;
(PID.TID 0000.0001) freeSurfFac =   /* Implicit free surface factor */
(PID.TID 0000.0001)                 1.000000000000000E+00
(PID.TID 0000.0001)     ;
(PID.TID 0000.0001) implicSurfPress =  /* Surface Pressure implicit factor (0-1)*/
(PID.TID 0000.0001)                 1.000000000000000E+00
(PID.TID 0000.0001)     ;
(PID.TID 0000.0001) implicDiv2DFlow =  /* Barot. Flow Div. implicit factor (0-1)*/
(PID.TID 0000.0001)                 1.000000000000000E+00
(PID.TID 0000.0001)     ;
(PID.TID 0000.0001) uniformLin_PhiSurf = /* use uniform Bo_surf on/off flag*/
(PID.TID 0000.0001)                   T
(PID.TID 0000.0001)     ;
(PID.TID 0000.0001) uniformFreeSurfLev = /* free-surface level-index is uniform */
(PID.TID 0000.0001)                   T
(PID.TID 0000.0001)     ;
(PID.TID 0000.0001) hFacMin =   /* minimum partial cell factor (hFac) */
(PID.TID 0000.0001)                 2.000000000000000E-01
(PID.TID 0000.0001)     ;
(PID.TID 0000.0001) hFacMinDr = /* minimum partial cell thickness ( m) */
(PID.TID 0000.0001)                 5.000000000000000E+00
(PID.TID 0000.0001)     ;
(PID.TID 0000.0001) exactConserv =  /* Exact Volume Conservation on/off flag*/
(PID.TID 0000.0001)                   T
(PID.TID 0000.0001)     ;
(PID.TID 0000.0001) linFSConserveTr = /* Tracer correction for Lin Free Surface on/off flag*/
(PID.TID 0000.0001)                   F
(PID.TID 0000.0001)     ;
(PID.TID 0000.0001) nonlinFreeSurf = /* Non-linear Free Surf. options (-1,0,1,2,3)*/
(PID.TID 0000.0001)                       0
(PID.TID 0000.0001)      -1,0= Off ; 1,2,3= On, 2=+rescale gU,gV, 3=+update cg2d solv.
(PID.TID 0000.0001)     ;
(PID.TID 0000.0001) hFacInf =   /* lower threshold for hFac (nonlinFreeSurf only)*/
(PID.TID 0000.0001)                 2.000000000000000E-01
(PID.TID 0000.0001)     ;
(PID.TID 0000.0001) hFacSup =   /* upper threshold for hFac (nonlinFreeSurf only)*/
(PID.TID 0000.0001)                 2.000000000000000E+00
(PID.TID 0000.0001)     ;
(PID.TID 0000.0001) select_rStar = /* r* Vertical coord. options (=0 r coord.; >0 uses r*)*/
(PID.TID 0000.0001)                       0
(PID.TID 0000.0001)     ;
(PID.TID 0000.0001) useRealFreshWaterFlux = /* Real Fresh Water Flux on/off flag*/
(PID.TID 0000.0001)                   F
(PID.TID 0000.0001)     ;
(PID.TID 0000.0001) temp_EvPrRn = /* Temp. of Evap/Prec/R (UNSET=use local T)(oC)*/
(PID.TID 0000.0001)                 0.000000000000000E+00
(PID.TID 0000.0001)     ;
(PID.TID 0000.0001) salt_EvPrRn = /* Salin. of Evap/Prec/R (UNSET=use local S)(psu)*/
(PID.TID 0000.0001)                 0.000000000000000E+00
(PID.TID 0000.0001)     ;
(PID.TID 0000.0001) selectAddFluid = /* option for mass source/sink of fluid (=0: off) */
(PID.TID 0000.0001)                       0
(PID.TID 0000.0001)     ;
(PID.TID 0000.0001) temp_addMass = /* Temp. of addMass array (UNSET=use local T)(oC)*/
(PID.TID 0000.0001)                 0.000000000000000E+00
(PID.TID 0000.0001)     ;
(PID.TID 0000.0001) salt_addMass = /* Salin. of addMass array (UNSET=use local S)(psu)*/
(PID.TID 0000.0001)                 0.000000000000000E+00
(PID.TID 0000.0001)     ;
(PID.TID 0000.0001) convertFW2Salt = /* convert F.W. Flux to Salt Flux (-1=use local S)(psu)*/
(PID.TID 0000.0001)                -1.000000000000000E+00
(PID.TID 0000.0001)     ;
(PID.TID 0000.0001) use3Dsolver = /* use 3-D pressure solver on/off flag */
(PID.TID 0000.0001)                   F
(PID.TID 0000.0001)     ;
(PID.TID 0000.0001) nonHydrostatic =  /* Non-Hydrostatic on/off flag */
(PID.TID 0000.0001)                   F
(PID.TID 0000.0001)     ;
(PID.TID 0000.0001) nh_Am2 = /* Non-Hydrostatic terms scaling factor */
(PID.TID 0000.0001)                 1.000000000000000E+00
(PID.TID 0000.0001)     ;
(PID.TID 0000.0001) implicitNHPress = /* Non-Hyd Pressure implicit factor (0-1)*/
(PID.TID 0000.0001)                 1.000000000000000E+00
(PID.TID 0000.0001)     ;
(PID.TID 0000.0001) selectNHfreeSurf = /* Non-Hyd (free-)Surface option */
(PID.TID 0000.0001)                       0
(PID.TID 0000.0001)     ;
(PID.TID 0000.0001) quasiHydrostatic = /* Quasi-Hydrostatic on/off flag */
(PID.TID 0000.0001)                   F
(PID.TID 0000.0001)     ;
(PID.TID 0000.0001) calc_wVelocity = /* vertical velocity calculation on/off flag */
(PID.TID 0000.0001)                   T
(PID.TID 0000.0001)     ;
(PID.TID 0000.0001) momStepping =  /* Momentum equation on/off flag */
(PID.TID 0000.0001)                   T
(PID.TID 0000.0001)     ;
(PID.TID 0000.0001) vectorInvariantMomentum= /* Vector-Invariant Momentum on/off */
(PID.TID 0000.0001)                   T
(PID.TID 0000.0001)     ;
(PID.TID 0000.0001) momAdvection =  /* Momentum advection on/off flag */
(PID.TID 0000.0001)                   T
(PID.TID 0000.0001)     ;
(PID.TID 0000.0001) momViscosity =  /* Momentum viscosity on/off flag */
(PID.TID 0000.0001)                   T
(PID.TID 0000.0001)     ;
(PID.TID 0000.0001) momImplVertAdv= /* Momentum implicit vert. advection on/off*/
(PID.TID 0000.0001)                   F
(PID.TID 0000.0001)     ;
(PID.TID 0000.0001) implicitViscosity = /* Implicit viscosity on/off flag */
(PID.TID 0000.0001)                   T
(PID.TID 0000.0001)     ;
(PID.TID 0000.0001) selectImplicitDrag= /* Implicit bot Drag options (0,1,2)*/
(PID.TID 0000.0001)                       0
(PID.TID 0000.0001)     0= Expl. ; 1= Impl. on provis. Vel ; 2= Fully Impl (with surf.P)
(PID.TID 0000.0001)     ;
(PID.TID 0000.0001) metricTerms =  /* metric-Terms on/off flag */
(PID.TID 0000.0001)                   T
(PID.TID 0000.0001)     ;
(PID.TID 0000.0001) useNHMTerms = /* Non-Hydrostatic Metric-Terms on/off */
(PID.TID 0000.0001)                   F
(PID.TID 0000.0001)     ;
(PID.TID 0000.0001) selectCoriMap = /* Coriolis Map options (0,1,2,3)*/
(PID.TID 0000.0001)                       2
(PID.TID 0000.0001)     0= f-Plane ; 1= Beta-Plane ; 2= Spherical ; 3= read from file
(PID.TID 0000.0001)     ;
(PID.TID 0000.0001) use3dCoriolis = /* 3-D Coriolis on/off flag */
(PID.TID 0000.0001)                   F
(PID.TID 0000.0001)     ;
(PID.TID 0000.0001) useCoriolis =  /* Coriolis on/off flag */
(PID.TID 0000.0001)                   T
(PID.TID 0000.0001)     ;
(PID.TID 0000.0001) useCDscheme =  /* CD scheme on/off flag */
(PID.TID 0000.0001)                   F
(PID.TID 0000.0001)     ;
(PID.TID 0000.0001) useEnergyConservingCoriolis= /* Flx-Form Coriolis scheme flag */
(PID.TID 0000.0001)                   F
(PID.TID 0000.0001)     ;
(PID.TID 0000.0001) useJamartWetPoints= /* Coriolis WetPoints method flag */
(PID.TID 0000.0001)                   F
(PID.TID 0000.0001)     ;
(PID.TID 0000.0001) useJamartMomAdv= /* V.I Non-linear terms Jamart flag */
(PID.TID 0000.0001)                   F
(PID.TID 0000.0001)     ;
(PID.TID 0000.0001) useAbsVorticity= /* V.I Works with f+zeta in Coriolis */
(PID.TID 0000.0001)                   F
(PID.TID 0000.0001)     ;
(PID.TID 0000.0001) selectVortScheme= /* V.I Scheme selector for Vorticity-Term */
(PID.TID 0000.0001)                       0
(PID.TID 0000.0001)    = 0 : enstrophy (Shallow-Water Eq.) conserving scheme by Sadourny, JAS 75
(PID.TID 0000.0001)    = 1 : same as 0 with modified hFac
(PID.TID 0000.0001)    = 2 : energy conserving scheme (used by Sadourny in JAS 75 paper)
(PID.TID 0000.0001)    = 3 : energy (general) and enstrophy (2D, nonDiv.) conserving scheme
(PID.TID 0000.0001)          from Sadourny (Burridge & Haseler, ECMWF Rep.4, 1977)
(PID.TID 0000.0001)     ;
(PID.TID 0000.0001) upwindVorticity= /* V.I Upwind bias vorticity flag */
(PID.TID 0000.0001)                   F
(PID.TID 0000.0001)     ;
(PID.TID 0000.0001) highOrderVorticity= /* V.I High order vort. advect. flag */
(PID.TID 0000.0001)                   T
(PID.TID 0000.0001)     ;
(PID.TID 0000.0001) upwindShear= /* V.I Upwind vertical Shear advection flag */
(PID.TID 0000.0001)                   F
(PID.TID 0000.0001)     ;
(PID.TID 0000.0001) selectKEscheme= /* V.I Kinetic Energy scheme selector */
(PID.TID 0000.0001)                       0
(PID.TID 0000.0001)     ;
(PID.TID 0000.0001) momForcing =  /* Momentum forcing on/off flag */
(PID.TID 0000.0001)                   T
(PID.TID 0000.0001)     ;
(PID.TID 0000.0001) momTidalForcing = /* Momentum Tidal forcing on/off flag */
(PID.TID 0000.0001)                   T
(PID.TID 0000.0001)     ;
(PID.TID 0000.0001) momPressureForcing =  /* Momentum pressure term on/off flag */
(PID.TID 0000.0001)                   T
(PID.TID 0000.0001)     ;
(PID.TID 0000.0001) implicitIntGravWave= /* Implicit Internal Gravity Wave flag */
(PID.TID 0000.0001)                   F
(PID.TID 0000.0001)     ;
(PID.TID 0000.0001) staggerTimeStep =    /* Stagger time stepping on/off flag */
(PID.TID 0000.0001)                   T
(PID.TID 0000.0001)     ;
(PID.TID 0000.0001) doResetHFactors = /* reset thickness factors @ each time-step */
(PID.TID 0000.0001)                   F
(PID.TID 0000.0001)     ;
(PID.TID 0000.0001) multiDimAdvection =  /* enable/disable Multi-Dim Advection */
(PID.TID 0000.0001)                   T
(PID.TID 0000.0001)     ;
(PID.TID 0000.0001) useMultiDimAdvec =   /* Multi-Dim Advection is/is-not used */
(PID.TID 0000.0001)                   T
(PID.TID 0000.0001)     ;
(PID.TID 0000.0001) implicitDiffusion = /* Implicit Diffusion on/off flag */
(PID.TID 0000.0001)                   T
(PID.TID 0000.0001)     ;
(PID.TID 0000.0001) tempStepping =  /* Temperature equation on/off flag */
(PID.TID 0000.0001)                   T
(PID.TID 0000.0001)     ;
(PID.TID 0000.0001) tempAdvection = /* Temperature advection on/off flag */
(PID.TID 0000.0001)                   T
(PID.TID 0000.0001)     ;
(PID.TID 0000.0001) tempImplVertAdv = /* Temp. implicit vert. advection on/off */
(PID.TID 0000.0001)                   F
(PID.TID 0000.0001)     ;
(PID.TID 0000.0001) tempForcing  =  /* Temperature forcing on/off flag */
(PID.TID 0000.0001)                   T
(PID.TID 0000.0001)     ;
(PID.TID 0000.0001) doThetaClimRelax = /* apply SST relaxation on/off flag */
(PID.TID 0000.0001)                   F
(PID.TID 0000.0001)     ;
(PID.TID 0000.0001) tempIsActiveTr = /* Temp. is a dynamically Active Tracer */
(PID.TID 0000.0001)                   T
(PID.TID 0000.0001)     ;
(PID.TID 0000.0001) saltStepping =  /* Salinity equation on/off flag */
(PID.TID 0000.0001)                   T
(PID.TID 0000.0001)     ;
(PID.TID 0000.0001) saltAdvection = /* Salinity advection on/off flag */
(PID.TID 0000.0001)                   T
(PID.TID 0000.0001)     ;
(PID.TID 0000.0001) saltImplVertAdv = /* Sali. implicit vert. advection on/off */
(PID.TID 0000.0001)                   F
(PID.TID 0000.0001)     ;
(PID.TID 0000.0001) saltForcing  =  /* Salinity forcing on/off flag */
(PID.TID 0000.0001)                   T
(PID.TID 0000.0001)     ;
(PID.TID 0000.0001) doSaltClimRelax = /* apply SSS relaxation on/off flag */
(PID.TID 0000.0001)                   F
(PID.TID 0000.0001)     ;
(PID.TID 0000.0001) saltIsActiveTr = /* Salt  is a dynamically Active Tracer */
(PID.TID 0000.0001)                   T
(PID.TID 0000.0001)     ;
(PID.TID 0000.0001)  readBinaryPrec = /* Precision used for reading binary files */
(PID.TID 0000.0001)                      32
(PID.TID 0000.0001)     ;
(PID.TID 0000.0001) writeBinaryPrec = /* Precision used for writing binary files */
(PID.TID 0000.0001)                      32
(PID.TID 0000.0001)     ;
(PID.TID 0000.0001)  rwSuffixType =   /* select format of mds file suffix */
(PID.TID 0000.0001)                       0
(PID.TID 0000.0001)    = 0 : myIter (I10.10) ;   = 1 : 100*myTime (100th sec) ;
(PID.TID 0000.0001)    = 2 : myTime (seconds);   = 3 : myTime/360 (10th of hr);
(PID.TID 0000.0001)    = 4 : myTime/3600 (hours)
(PID.TID 0000.0001)     ;
(PID.TID 0000.0001)  globalFiles = /* write "global" (=not per tile) files */
(PID.TID 0000.0001)                   T
(PID.TID 0000.0001)     ;
(PID.TID 0000.0001)  useSingleCpuIO = /* only master MPI process does I/O */
(PID.TID 0000.0001)                   T
(PID.TID 0000.0001)     ;
(PID.TID 0000.0001)  useSingleCpuInput = /* only master process reads input */
(PID.TID 0000.0001)                   T
(PID.TID 0000.0001)     ;
(PID.TID 0000.0001) /* debLev[*]  : level of debug & auxiliary message printing */
(PID.TID 0000.0001) debLevZero =  0 ; /* level of disabled aux. msg printing */
(PID.TID 0000.0001)    debLevA =  1 ; /* level of minimum  aux. msg printing */
(PID.TID 0000.0001)    debLevB =  2 ; /* level of low aux. print (report read-file opening)*/
(PID.TID 0000.0001)    debLevC =  3 ; /* level of moderate debug prt (most pkgs debug msg) */
(PID.TID 0000.0001)    debLevD =  4 ; /* level of enhanced debug prt (add DEBUG_STATS prt) */
(PID.TID 0000.0001)    debLevE =  5 ; /* level of extensive debug printing */
(PID.TID 0000.0001) debugLevel =  /* select debug printing level */
(PID.TID 0000.0001)                       1
(PID.TID 0000.0001)     ;
(PID.TID 0000.0001)  plotLevel =  /* select PLOT_FIELD printing level */
(PID.TID 0000.0001)                       1
(PID.TID 0000.0001)     ;
(PID.TID 0000.0001) //
(PID.TID 0000.0001) // Elliptic solver(s) paramters ( PARM02 in namelist )
(PID.TID 0000.0001) //
(PID.TID 0000.0001) cg2dMaxIters =   /* Upper limit on 2d con. grad iterations  */
(PID.TID 0000.0001)                    1000
(PID.TID 0000.0001)     ;
(PID.TID 0000.0001) cg2dChkResFreq =   /* 2d con. grad convergence test frequency */
(PID.TID 0000.0001)                       1
(PID.TID 0000.0001)     ;
(PID.TID 0000.0001) cg2dUseMinResSol= /* use cg2d last-iter(=0) / min-resid.(=1) solution */
(PID.TID 0000.0001)                       0
(PID.TID 0000.0001)     ;
(PID.TID 0000.0001) cg2dTargetResidual =   /* 2d con. grad target residual  */
(PID.TID 0000.0001)                 1.000000000000000E-07
(PID.TID 0000.0001)     ;
(PID.TID 0000.0001) cg2dTargetResWunit =   /* CG2d target residual [W units] */
(PID.TID 0000.0001)                 1.000000000000000E-18
(PID.TID 0000.0001)     ;
(PID.TID 0000.0001) cg2dPreCondFreq =   /* Freq. for updating cg2d preconditioner */
(PID.TID 0000.0001)                       1
(PID.TID 0000.0001)     ;
(PID.TID 0000.0001) useSRCGSolver =  /* use single reduction CG solver(s) */
(PID.TID 0000.0001)                   F
(PID.TID 0000.0001)     ;
(PID.TID 0000.0001) printResidualFreq = /* Freq. for printing CG residual */
(PID.TID 0000.0001)                       0
(PID.TID 0000.0001)     ;
(PID.TID 0000.0001) //
(PID.TID 0000.0001) // Time stepping paramters ( PARM03 in namelist )
(PID.TID 0000.0001) //
(PID.TID 0000.0001) deltaTMom =   /* Momentum equation timestep ( s ) */
(PID.TID 0000.0001)                 8.000000000000000E+01
(PID.TID 0000.0001)     ;
(PID.TID 0000.0001) deltaTFreeSurf = /* FreeSurface equation timestep ( s ) */
(PID.TID 0000.0001)                 8.000000000000000E+01
(PID.TID 0000.0001)     ;
(PID.TID 0000.0001) dTtracerLev =  /* Tracer equation timestep ( s ) */
(PID.TID 0000.0001)   100 @  8.000000000000000E+01              /* K =  1:100 */
(PID.TID 0000.0001)     ;
(PID.TID 0000.0001) deltaTClock  =   /* Model clock timestep ( s ) */
(PID.TID 0000.0001)                 8.000000000000000E+01
(PID.TID 0000.0001)     ;
(PID.TID 0000.0001) cAdjFreq =   /* Convective adjustment interval ( s ) */
(PID.TID 0000.0001)                 0.000000000000000E+00
(PID.TID 0000.0001)     ;
(PID.TID 0000.0001) momForcingOutAB = /* =1: take Momentum Forcing out of Adams-Bash. stepping */
(PID.TID 0000.0001)                       1
(PID.TID 0000.0001)     ;
(PID.TID 0000.0001) tracForcingOutAB = /* =1: take T,S,pTr Forcing out of Adams-Bash. stepping */
(PID.TID 0000.0001)                       1
(PID.TID 0000.0001)     ;
(PID.TID 0000.0001) momDissip_In_AB = /* put Dissipation Tendency in Adams-Bash. stepping */
(PID.TID 0000.0001)                   F
(PID.TID 0000.0001)     ;
(PID.TID 0000.0001) doAB_onGtGs = /* apply AB on Tendencies (rather than on T,S)*/
(PID.TID 0000.0001)                   T
(PID.TID 0000.0001)     ;
(PID.TID 0000.0001) abEps =   /* Adams-Bashforth-2 stabilizing weight */
(PID.TID 0000.0001)                 1.000000000000000E-01
(PID.TID 0000.0001)     ;
(PID.TID 0000.0001) applyExchUV_early = /* Apply EXCH to U,V earlier in time-step */
(PID.TID 0000.0001)                   F
(PID.TID 0000.0001)     ;
(PID.TID 0000.0001) pickupStrictlyMatch= /* stop if pickup do not strictly match */
(PID.TID 0000.0001)                   F
(PID.TID 0000.0001)     ;
(PID.TID 0000.0001) nIter0   =   /* Run starting timestep number */
(PID.TID 0000.0001)                15811200
(PID.TID 0000.0001)     ;
(PID.TID 0000.0001) nTimeSteps = /* Number of timesteps */
(PID.TID 0000.0001)                    2160
(PID.TID 0000.0001)     ;
(PID.TID 0000.0001) nEndIter =   /* Run ending timestep number */
(PID.TID 0000.0001)                15813360
(PID.TID 0000.0001)     ;
(PID.TID 0000.0001) baseTime =   /* Model base time ( s ) */
(PID.TID 0000.0001)                 0.000000000000000E+00
(PID.TID 0000.0001)     ;
(PID.TID 0000.0001) startTime =  /* Run start time ( s ) */
(PID.TID 0000.0001)                 1.264896000000000E+09
(PID.TID 0000.0001)     ;
(PID.TID 0000.0001) endTime  =   /* Integration ending time ( s ) */
(PID.TID 0000.0001)                 1.265068800000000E+09
(PID.TID 0000.0001)     ;
(PID.TID 0000.0001) pChkPtFreq = /* Permanent restart/pickup file interval ( s ) */
(PID.TID 0000.0001)                 8.640000000000000E+05
(PID.TID 0000.0001)     ;
(PID.TID 0000.0001) chkPtFreq  = /* Rolling restart/pickup file interval ( s ) */
(PID.TID 0000.0001)                 0.000000000000000E+00
(PID.TID 0000.0001)     ;
(PID.TID 0000.0001) pickup_write_mdsio =   /* Model IO flag. */
(PID.TID 0000.0001)                   T
(PID.TID 0000.0001)     ;
(PID.TID 0000.0001) pickup_read_mdsio =   /* Model IO flag. */
(PID.TID 0000.0001)                   T
(PID.TID 0000.0001)     ;
(PID.TID 0000.0001) writePickupAtEnd =   /* Model IO flag. */
(PID.TID 0000.0001)                   T
(PID.TID 0000.0001)     ;
(PID.TID 0000.0001) dumpFreq =   /* Model state write out interval ( s ). */
(PID.TID 0000.0001)                 0.000000000000000E+00
(PID.TID 0000.0001)     ;
(PID.TID 0000.0001) dumpInitAndLast= /* write out Initial & Last iter. model state */
(PID.TID 0000.0001)                   F
(PID.TID 0000.0001)     ;
(PID.TID 0000.0001) snapshot_mdsio =   /* Model IO flag. */
(PID.TID 0000.0001)                   T
(PID.TID 0000.0001)     ;
(PID.TID 0000.0001) monitorFreq =   /* Monitor output interval ( s ). */
(PID.TID 0000.0001)                 3.600000000000000E+03
(PID.TID 0000.0001)     ;
(PID.TID 0000.0001) monitorSelect = /* select group of variables to monitor */
(PID.TID 0000.0001)                       3
(PID.TID 0000.0001)     ;
(PID.TID 0000.0001) monitor_stdio =   /* Model IO flag. */
(PID.TID 0000.0001)                   T
(PID.TID 0000.0001)     ;
(PID.TID 0000.0001) externForcingPeriod =   /* forcing period (s) */
(PID.TID 0000.0001)                 0.000000000000000E+00
(PID.TID 0000.0001)     ;
(PID.TID 0000.0001) externForcingCycle =   /* period of the cyle (s). */
(PID.TID 0000.0001)                 0.000000000000000E+00
(PID.TID 0000.0001)     ;
(PID.TID 0000.0001) tauThetaClimRelax =   /* relaxation time scale (s) */
(PID.TID 0000.0001)                 0.000000000000000E+00
(PID.TID 0000.0001)     ;
(PID.TID 0000.0001) tauSaltClimRelax =   /* relaxation time scale (s) */
(PID.TID 0000.0001)                 0.000000000000000E+00
(PID.TID 0000.0001)     ;
(PID.TID 0000.0001) latBandClimRelax =   /* max. Lat. where relaxation */
(PID.TID 0000.0001)                 1.800000000000000E+02
(PID.TID 0000.0001)     ;
(PID.TID 0000.0001) //
(PID.TID 0000.0001) // Gridding paramters ( PARM04 in namelist )
(PID.TID 0000.0001) //
(PID.TID 0000.0001) usingCartesianGrid = /* Cartesian coordinates flag ( True/False ) */
(PID.TID 0000.0001)                   F
(PID.TID 0000.0001)     ;
(PID.TID 0000.0001) usingCylindricalGrid = /* Cylindrical coordinates flag ( True/False ) */
(PID.TID 0000.0001)                   F
(PID.TID 0000.0001)     ;
(PID.TID 0000.0001) usingSphericalPolarGrid = /* Spherical coordinates flag ( True/False ) */
(PID.TID 0000.0001)                   T
(PID.TID 0000.0001)     ;
(PID.TID 0000.0001) usingCurvilinearGrid = /* Curvilinear coordinates flag ( True/False ) */
(PID.TID 0000.0001)                   F
(PID.TID 0000.0001)     ;
(PID.TID 0000.0001) useMin4hFacEdges = /* set hFacW,S as minimum of adjacent hFacC factor */
(PID.TID 0000.0001)                   F
(PID.TID 0000.0001)     ;
(PID.TID 0000.0001) interViscAr_pCell = /* account for partial-cell in interior vert. viscosity */
(PID.TID 0000.0001)                   F
(PID.TID 0000.0001)     ;
(PID.TID 0000.0001) interDiffKr_pCell = /* account for partial-cell in interior vert. diffusion */
(PID.TID 0000.0001)                   F
(PID.TID 0000.0001)     ;
(PID.TID 0000.0001) pCellMix_select = /* option to enhance mixing near surface & bottom */
(PID.TID 0000.0001)                       0
(PID.TID 0000.0001)     ;
(PID.TID 0000.0001) selectSigmaCoord = /* Hybrid-Sigma Vert. Coordinate option */
(PID.TID 0000.0001)                       0
(PID.TID 0000.0001)     ;
(PID.TID 0000.0001) rSigmaBnd = /* r/sigma transition ( units of r ==  m ) */
(PID.TID 0000.0001)                 1.234567000000000E+05
(PID.TID 0000.0001)     ;
(PID.TID 0000.0001) rkSign =   /* index orientation relative to vertical coordinate */
(PID.TID 0000.0001)                -1.000000000000000E+00
(PID.TID 0000.0001)     ;
(PID.TID 0000.0001) gravitySign = /* gravity orientation relative to vertical coordinate */
(PID.TID 0000.0001)                -1.000000000000000E+00
(PID.TID 0000.0001)     ;
(PID.TID 0000.0001) seaLev_Z =  /* reference height of sea-level [m] */
(PID.TID 0000.0001)                 0.000000000000000E+00
(PID.TID 0000.0001)     ;
(PID.TID 0000.0001) top_Pres =  /* reference pressure at the top [Pa] */
(PID.TID 0000.0001)                 0.000000000000000E+00
(PID.TID 0000.0001)     ;
(PID.TID 0000.0001) mass2rUnit = /* convert mass per unit area [kg/m2] to r-units [m] */
(PID.TID 0000.0001)                 9.718172983479105E-04
(PID.TID 0000.0001)     ;
(PID.TID 0000.0001) rUnit2mass = /* convert r-units [m] to mass per unit area [kg/m2] */
(PID.TID 0000.0001)                 1.029000000000000E+03
(PID.TID 0000.0001)     ;
(PID.TID 0000.0001) drC =   /* C spacing ( units of r ) */
(PID.TID 0000.0001)                 2.500000000000000E+00,      /* K =  1 */
(PID.TID 0000.0001)    14 @  5.000000000000000E+00,             /* K =  2: 15 */
(PID.TID 0000.0001)                 5.005000000000000E+00,      /* K = 16 */
(PID.TID 0000.0001)                 5.010000000000000E+00,      /* K = 17 */
(PID.TID 0000.0001)                 5.015000000000000E+00,      /* K = 18 */
(PID.TID 0000.0001)                 5.029999999999999E+00,      /* K = 19 */
(PID.TID 0000.0001)                 5.055000000000000E+00,      /* K = 20 */
(PID.TID 0000.0001)                 5.095000000000001E+00,      /* K = 21 */
(PID.TID 0000.0001)                 5.160000000000000E+00,      /* K = 22 */
(PID.TID 0000.0001)                 5.255000000000000E+00,      /* K = 23 */
(PID.TID 0000.0001)                 5.400000000000000E+00,      /* K = 24 */
(PID.TID 0000.0001)                 5.605000000000000E+00,      /* K = 25 */
(PID.TID 0000.0001)                 5.880000000000000E+00,      /* K = 26 */
(PID.TID 0000.0001)                 6.245000000000000E+00,      /* K = 27 */
(PID.TID 0000.0001)                 6.710000000000000E+00,      /* K = 28 */
(PID.TID 0000.0001)                 7.295000000000000E+00,      /* K = 29 */
(PID.TID 0000.0001)                 8.020000000000000E+00,      /* K = 30 */
(PID.TID 0000.0001)                 8.890000000000001E+00,      /* K = 31 */
(PID.TID 0000.0001)                 9.910000000000000E+00,      /* K = 32 */
(PID.TID 0000.0001)                 1.109000000000000E+01,      /* K = 33 */
(PID.TID 0000.0001)                 1.242500000000000E+01,      /* K = 34 */
(PID.TID 0000.0001)                 1.391500000000000E+01,      /* K = 35 */
(PID.TID 0000.0001)                 1.555000000000000E+01,      /* K = 36 */
(PID.TID 0000.0001)                 1.732000000000000E+01,      /* K = 37 */
(PID.TID 0000.0001)                 1.921000000000000E+01,      /* K = 38 */
(PID.TID 0000.0001)                 2.119500000000000E+01,      /* K = 39 */
(PID.TID 0000.0001)                 2.325000000000000E+01,      /* K = 40 */
(PID.TID 0000.0001)                 2.536000000000000E+01,      /* K = 41 */
(PID.TID 0000.0001)                 2.750000000000000E+01,      /* K = 42 */
(PID.TID 0000.0001)                 2.964000000000000E+01,      /* K = 43 */
(PID.TID 0000.0001)                 3.175000000000000E+01,      /* K = 44 */
(PID.TID 0000.0001)                 3.380500000000000E+01,      /* K = 45 */
(PID.TID 0000.0001)                 3.579000000000000E+01,      /* K = 46 */
(PID.TID 0000.0001)                 3.768000000000000E+01,      /* K = 47 */
(PID.TID 0000.0001)                 3.945000000000000E+01,      /* K = 48 */
(PID.TID 0000.0001)                 4.108499999999999E+01,      /* K = 49 */
(PID.TID 0000.0001)                 4.257500000000000E+01,      /* K = 50 */
(PID.TID 0000.0001)                 4.391000000000000E+01,      /* K = 51 */
(PID.TID 0000.0001)                 4.509000000000000E+01,      /* K = 52 */
(PID.TID 0000.0001)                 4.611000000000000E+01,      /* K = 53 */
(PID.TID 0000.0001)                 4.698000000000000E+01,      /* K = 54 */
(PID.TID 0000.0001)                 4.770500000000000E+01,      /* K = 55 */
(PID.TID 0000.0001)                 4.829000000000000E+01,      /* K = 56 */
(PID.TID 0000.0001)                 4.875500000000000E+01,      /* K = 57 */
(PID.TID 0000.0001)                 4.912500000000000E+01,      /* K = 58 */
(PID.TID 0000.0001)                 4.941000000000000E+01,      /* K = 59 */
(PID.TID 0000.0001)                 4.962500000000000E+01,      /* K = 60 */
(PID.TID 0000.0001)                 4.981000000000000E+01,      /* K = 61 */
(PID.TID 0000.0001)                 5.000500000000000E+01,      /* K = 62 */
(PID.TID 0000.0001)                 5.026000000000000E+01,      /* K = 63 */
(PID.TID 0000.0001)                 5.066500000000000E+01,      /* K = 64 */
(PID.TID 0000.0001)                 5.130500000000000E+01,      /* K = 65 */
(PID.TID 0000.0001)                 5.228000000000000E+01,      /* K = 66 */
(PID.TID 0000.0001)                 5.370500000000000E+01,      /* K = 67 */
(PID.TID 0000.0001)                 5.566500000000000E+01,      /* K = 68 */
(PID.TID 0000.0001)                 5.823000000000000E+01,      /* K = 69 */
(PID.TID 0000.0001)                 6.141500000000000E+01,      /* K = 70 */
(PID.TID 0000.0001)                 6.521000000000001E+01,      /* K = 71 */
(PID.TID 0000.0001)                 6.954500000000000E+01,      /* K = 72 */
(PID.TID 0000.0001)                 7.433000000000000E+01,      /* K = 73 */
(PID.TID 0000.0001)                 7.947000000000000E+01,      /* K = 74 */
(PID.TID 0000.0001)                 8.486000000000000E+01,      /* K = 75 */
(PID.TID 0000.0001)                 9.041499999999999E+01,      /* K = 76 */
(PID.TID 0000.0001)                 9.606500000000000E+01,      /* K = 77 */
(PID.TID 0000.0001)                 1.017750000000000E+02,      /* K = 78 */
(PID.TID 0000.0001)                 1.075100000000000E+02,      /* K = 79 */
(PID.TID 0000.0001)                 1.132500000000000E+02,      /* K = 80 */
(PID.TID 0000.0001)                 1.189950000000000E+02,      /* K = 81 */
(PID.TID 0000.0001)                 1.247500000000000E+02,      /* K = 82 */
(PID.TID 0000.0001)                 1.305050000000000E+02,      /* K = 83 */
(PID.TID 0000.0001)                 1.362500000000000E+02,      /* K = 84 */
(PID.TID 0000.0001)                 1.419950000000000E+02,      /* K = 85 */
(PID.TID 0000.0001)                 1.477500000000000E+02,      /* K = 86 */
(PID.TID 0000.0001)                 1.535050000000000E+02,      /* K = 87 */
(PID.TID 0000.0001)                 1.592500000000000E+02,      /* K = 88 */
(PID.TID 0000.0001)                 1.649950000000000E+02,      /* K = 89 */
(PID.TID 0000.0001)                 1.707500000000000E+02,      /* K = 90 */
(PID.TID 0000.0001)                 1.765050000000000E+02,      /* K = 91 */
(PID.TID 0000.0001)                 1.822500000000000E+02,      /* K = 92 */
(PID.TID 0000.0001)                 1.879950000000000E+02,      /* K = 93 */
(PID.TID 0000.0001)                 1.937500000000000E+02,      /* K = 94 */
(PID.TID 0000.0001)                 1.995050000000000E+02,      /* K = 95 */
(PID.TID 0000.0001)                 2.052500000000000E+02,      /* K = 96 */
(PID.TID 0000.0001)                 2.109950000000000E+02,      /* K = 97 */
(PID.TID 0000.0001)                 2.167500000000000E+02,      /* K = 98 */
(PID.TID 0000.0001)                 2.225050000000000E+02,      /* K = 99 */
(PID.TID 0000.0001)                 2.282500000000000E+02,      /* K =100 */
(PID.TID 0000.0001)                 1.155600000000000E+02       /* K =101 */
(PID.TID 0000.0001)     ;
(PID.TID 0000.0001) drF =   /* W spacing ( units of r ) */
(PID.TID 0000.0001)    15 @  5.000000000000000E+00,             /* K =  1: 15 */
(PID.TID 0000.0001)     2 @  5.010000000000000E+00,             /* K = 16: 17 */
(PID.TID 0000.0001)                 5.020000000000000E+00,      /* K = 18 */
(PID.TID 0000.0001)                 5.040000000000000E+00,      /* K = 19 */
(PID.TID 0000.0001)                 5.070000000000000E+00,      /* K = 20 */
(PID.TID 0000.0001)                 5.120000000000000E+00,      /* K = 21 */
(PID.TID 0000.0001)                 5.200000000000000E+00,      /* K = 22 */
(PID.TID 0000.0001)                 5.310000000000000E+00,      /* K = 23 */
(PID.TID 0000.0001)                 5.490000000000000E+00,      /* K = 24 */
(PID.TID 0000.0001)                 5.720000000000000E+00,      /* K = 25 */
(PID.TID 0000.0001)                 6.040000000000000E+00,      /* K = 26 */
(PID.TID 0000.0001)                 6.450000000000000E+00,      /* K = 27 */
(PID.TID 0000.0001)                 6.970000000000000E+00,      /* K = 28 */
(PID.TID 0000.0001)                 7.620000000000000E+00,      /* K = 29 */
(PID.TID 0000.0001)                 8.420000000000000E+00,      /* K = 30 */
(PID.TID 0000.0001)                 9.359999999999999E+00,      /* K = 31 */
(PID.TID 0000.0001)                 1.046000000000000E+01,      /* K = 32 */
(PID.TID 0000.0001)                 1.172000000000000E+01,      /* K = 33 */
(PID.TID 0000.0001)                 1.313000000000000E+01,      /* K = 34 */
(PID.TID 0000.0001)                 1.470000000000000E+01,      /* K = 35 */
(PID.TID 0000.0001)                 1.640000000000000E+01,      /* K = 36 */
(PID.TID 0000.0001)                 1.824000000000000E+01,      /* K = 37 */
(PID.TID 0000.0001)                 2.018000000000000E+01,      /* K = 38 */
(PID.TID 0000.0001)                 2.221000000000000E+01,      /* K = 39 */
(PID.TID 0000.0001)                 2.429000000000000E+01,      /* K = 40 */
(PID.TID 0000.0001)                 2.643000000000000E+01,      /* K = 41 */
(PID.TID 0000.0001)                 2.857000000000000E+01,      /* K = 42 */
(PID.TID 0000.0001)                 3.071000000000000E+01,      /* K = 43 */
(PID.TID 0000.0001)                 3.279000000000000E+01,      /* K = 44 */
(PID.TID 0000.0001)                 3.482000000000000E+01,      /* K = 45 */
(PID.TID 0000.0001)                 3.676000000000000E+01,      /* K = 46 */
(PID.TID 0000.0001)                 3.860000000000000E+01,      /* K = 47 */
(PID.TID 0000.0001)                 4.030000000000000E+01,      /* K = 48 */
(PID.TID 0000.0001)                 4.187000000000000E+01,      /* K = 49 */
(PID.TID 0000.0001)                 4.328000000000000E+01,      /* K = 50 */
(PID.TID 0000.0001)                 4.454000000000000E+01,      /* K = 51 */
(PID.TID 0000.0001)                 4.564000000000000E+01,      /* K = 52 */
(PID.TID 0000.0001)                 4.658000000000000E+01,      /* K = 53 */
(PID.TID 0000.0001)                 4.738000000000000E+01,      /* K = 54 */
(PID.TID 0000.0001)                 4.803000000000000E+01,      /* K = 55 */
(PID.TID 0000.0001)                 4.855000000000000E+01,      /* K = 56 */
(PID.TID 0000.0001)                 4.896000000000000E+01,      /* K = 57 */
(PID.TID 0000.0001)                 4.929000000000000E+01,      /* K = 58 */
(PID.TID 0000.0001)                 4.953000000000000E+01,      /* K = 59 */
(PID.TID 0000.0001)                 4.972000000000000E+01,      /* K = 60 */
(PID.TID 0000.0001)                 4.990000000000000E+01,      /* K = 61 */
(PID.TID 0000.0001)                 5.011000000000000E+01,      /* K = 62 */
(PID.TID 0000.0001)                 5.041000000000000E+01,      /* K = 63 */
(PID.TID 0000.0001)                 5.092000000000000E+01,      /* K = 64 */
(PID.TID 0000.0001)                 5.169000000000000E+01,      /* K = 65 */
(PID.TID 0000.0001)                 5.287000000000000E+01,      /* K = 66 */
(PID.TID 0000.0001)                 5.454000000000000E+01,      /* K = 67 */
(PID.TID 0000.0001)                 5.679000000000000E+01,      /* K = 68 */
(PID.TID 0000.0001)                 5.967000000000000E+01,      /* K = 69 */
(PID.TID 0000.0001)                 6.316000000000000E+01,      /* K = 70 */
(PID.TID 0000.0001)                 6.726000000000001E+01,      /* K = 71 */
(PID.TID 0000.0001)                 7.183000000000000E+01,      /* K = 72 */
(PID.TID 0000.0001)                 7.683000000000000E+01,      /* K = 73 */
(PID.TID 0000.0001)                 8.211000000000000E+01,      /* K = 74 */
(PID.TID 0000.0001)                 8.761000000000000E+01,      /* K = 75 */
(PID.TID 0000.0001)                 9.322000000000000E+01,      /* K = 76 */
(PID.TID 0000.0001)                 9.891000000000000E+01,      /* K = 77 */
(PID.TID 0000.0001)                 1.046400000000000E+02,      /* K = 78 */
(PID.TID 0000.0001)                 1.103800000000000E+02,      /* K = 79 */
(PID.TID 0000.0001)                 1.161200000000000E+02,      /* K = 80 */
(PID.TID 0000.0001)                 1.218700000000000E+02,      /* K = 81 */
(PID.TID 0000.0001)                 1.276300000000000E+02,      /* K = 82 */
(PID.TID 0000.0001)                 1.333800000000000E+02,      /* K = 83 */
(PID.TID 0000.0001)                 1.391200000000000E+02,      /* K = 84 */
(PID.TID 0000.0001)                 1.448700000000000E+02,      /* K = 85 */
(PID.TID 0000.0001)                 1.506300000000000E+02,      /* K = 86 */
(PID.TID 0000.0001)                 1.563800000000000E+02,      /* K = 87 */
(PID.TID 0000.0001)                 1.621200000000000E+02,      /* K = 88 */
(PID.TID 0000.0001)                 1.678700000000000E+02,      /* K = 89 */
(PID.TID 0000.0001)                 1.736300000000000E+02,      /* K = 90 */
(PID.TID 0000.0001)                 1.793800000000000E+02,      /* K = 91 */
(PID.TID 0000.0001)                 1.851200000000000E+02,      /* K = 92 */
(PID.TID 0000.0001)                 1.908700000000000E+02,      /* K = 93 */
(PID.TID 0000.0001)                 1.966300000000000E+02,      /* K = 94 */
(PID.TID 0000.0001)                 2.023800000000000E+02,      /* K = 95 */
(PID.TID 0000.0001)                 2.081200000000000E+02,      /* K = 96 */
(PID.TID 0000.0001)                 2.138700000000000E+02,      /* K = 97 */
(PID.TID 0000.0001)                 2.196300000000000E+02,      /* K = 98 */
(PID.TID 0000.0001)                 2.253800000000000E+02,      /* K = 99 */
(PID.TID 0000.0001)                 2.311200000000000E+02       /* K =100 */
(PID.TID 0000.0001)     ;
(PID.TID 0000.0001) delX = /* U spacing ( m - cartesian, degrees - spherical ) */
(PID.TID 0000.0001)  2960 @  2.556860854037400E-02              /* I =   1:2960 */
(PID.TID 0000.0001)     ;
(PID.TID 0000.0001) delY = /* V spacing ( m - cartesian, degrees - spherical ) */
(PID.TID 0000.0001)   800 @  2.083333333333300E-02              /* J =  1:800 */
(PID.TID 0000.0001)     ;
(PID.TID 0000.0001) xgOrigin = /* X-axis origin of West  edge (cartesian: m, lat-lon: deg) */
(PID.TID 0000.0001)                -8.158333587646484E+01
(PID.TID 0000.0001)     ;
(PID.TID 0000.0001) ygOrigin = /* Y-axis origin of South edge (cartesian: m, lat-lon: deg) */
(PID.TID 0000.0001)                 2.685529327392578E+01
(PID.TID 0000.0001)     ;
(PID.TID 0000.0001) rSphere =  /* Radius ( ignored - cartesian, m - spherical ) */
(PID.TID 0000.0001)                 6.370000000000000E+06
(PID.TID 0000.0001)     ;
(PID.TID 0000.0001) deepAtmosphere = /* Deep/Shallow Atmosphere flag (True/False) */
(PID.TID 0000.0001)                   F
(PID.TID 0000.0001)     ;
(PID.TID 0000.0001) xC =  /* xC(:,1,:,1) : P-point X coord ( deg. or m if cartesian) */
(PID.TID 0000.0001)                -8.054780723057993E+01,      /* I =  1 */
(PID.TID 0000.0001)                -8.052223862203957E+01,      /* I =  2 */
(PID.TID 0000.0001)                -8.049667001349920E+01,      /* I =  3 */
(PID.TID 0000.0001)                -8.047110140495883E+01,      /* I =  4 */
(PID.TID 0000.0001)                -8.044553279641846E+01,      /* I =  5 */
(PID.TID 0000.0001)                -8.041996418787809E+01,      /* I =  6 */
(PID.TID 0000.0001)                -8.039439557933773E+01,      /* I =  7 */
(PID.TID 0000.0001)                -8.036882697079736E+01,      /* I =  8 */
(PID.TID 0000.0001)                -8.034325836225699E+01,      /* I =  9 */
(PID.TID 0000.0001)                -8.031768975371662E+01,      /* I = 10 */
(PID.TID 0000.0001)                -8.029212114517625E+01,      /* I = 11 */
(PID.TID 0000.0001)                -8.026655253663588E+01,      /* I = 12 */
(PID.TID 0000.0001)                -8.024098392809552E+01,      /* I = 13 */
(PID.TID 0000.0001)                -8.021541531955515E+01,      /* I = 14 */
(PID.TID 0000.0001)                -8.018984671101478E+01,      /* I = 15 */
(PID.TID 0000.0001)                -8.016427810247441E+01,      /* I = 16 */
(PID.TID 0000.0001)                -8.013870949393404E+01,      /* I = 17 */
(PID.TID 0000.0001)                -8.011314088539368E+01,      /* I = 18 */
(PID.TID 0000.0001)                -8.008757227685331E+01,      /* I = 19 */
(PID.TID 0000.0001)                -8.006200366831294E+01       /* I = 20 */
(PID.TID 0000.0001)     ;
(PID.TID 0000.0001) yC =  /* yC(1,:,1,:) : P-point Y coord ( deg. or m if cartesian) */
(PID.TID 0000.0001)                 2.686570994059245E+01,      /* J =  1 */
(PID.TID 0000.0001)                 2.688654327392578E+01,      /* J =  2 */
(PID.TID 0000.0001)                 2.690737660725911E+01,      /* J =  3 */
(PID.TID 0000.0001)                 2.692820994059244E+01,      /* J =  4 */
(PID.TID 0000.0001)                 2.694904327392577E+01,      /* J =  5 */
(PID.TID 0000.0001)                 2.696987660725911E+01,      /* J =  6 */
(PID.TID 0000.0001)                 2.699070994059244E+01,      /* J =  7 */
(PID.TID 0000.0001)                 2.701154327392577E+01,      /* J =  8 */
(PID.TID 0000.0001)                 2.703237660725910E+01,      /* J =  9 */
(PID.TID 0000.0001)                 2.705320994059244E+01,      /* J = 10 */
(PID.TID 0000.0001)                 2.707404327392577E+01,      /* J = 11 */
(PID.TID 0000.0001)                 2.709487660725910E+01,      /* J = 12 */
(PID.TID 0000.0001)                 2.711570994059243E+01,      /* J = 13 */
(PID.TID 0000.0001)                 2.713654327392577E+01,      /* J = 14 */
(PID.TID 0000.0001)                 2.715737660725910E+01,      /* J = 15 */
(PID.TID 0000.0001)                 2.717820994059243E+01,      /* J = 16 */
(PID.TID 0000.0001)                 2.719904327392576E+01,      /* J = 17 */
(PID.TID 0000.0001)                 2.721987660725910E+01,      /* J = 18 */
(PID.TID 0000.0001)                 2.724070994059243E+01,      /* J = 19 */
(PID.TID 0000.0001)                 2.726154327392576E+01       /* J = 20 */
(PID.TID 0000.0001)     ;
(PID.TID 0000.0001) rcoord = /* P-point R coordinate (  units of r ) */
(PID.TID 0000.0001)                -2.500000000000000E+00,      /* K =  1 */
(PID.TID 0000.0001)                -7.500000000000000E+00,      /* K =  2 */
(PID.TID 0000.0001)                -1.250000000000000E+01,      /* K =  3 */
(PID.TID 0000.0001)                -1.750000000000000E+01,      /* K =  4 */
(PID.TID 0000.0001)                -2.250000000000000E+01,      /* K =  5 */
(PID.TID 0000.0001)                -2.750000000000000E+01,      /* K =  6 */
(PID.TID 0000.0001)                -3.250000000000000E+01,      /* K =  7 */
(PID.TID 0000.0001)                -3.750000000000000E+01,      /* K =  8 */
(PID.TID 0000.0001)                -4.250000000000000E+01,      /* K =  9 */
(PID.TID 0000.0001)                -4.750000000000000E+01,      /* K = 10 */
(PID.TID 0000.0001)                -5.250000000000000E+01,      /* K = 11 */
(PID.TID 0000.0001)                -5.750000000000000E+01,      /* K = 12 */
(PID.TID 0000.0001)                -6.250000000000000E+01,      /* K = 13 */
(PID.TID 0000.0001)                -6.750000000000000E+01,      /* K = 14 */
(PID.TID 0000.0001)                -7.250000000000000E+01,      /* K = 15 */
(PID.TID 0000.0001)                -7.750500000000000E+01,      /* K = 16 */
(PID.TID 0000.0001)                -8.251500000000000E+01,      /* K = 17 */
(PID.TID 0000.0001)                -8.753000000000000E+01,      /* K = 18 */
(PID.TID 0000.0001)                -9.256000000000000E+01,      /* K = 19 */
(PID.TID 0000.0001)                -9.761500000000001E+01,      /* K = 20 */
(PID.TID 0000.0001)                -1.027100000000000E+02,      /* K = 21 */
(PID.TID 0000.0001)                -1.078700000000000E+02,      /* K = 22 */
(PID.TID 0000.0001)                -1.131250000000000E+02,      /* K = 23 */
(PID.TID 0000.0001)                -1.185250000000000E+02,      /* K = 24 */
(PID.TID 0000.0001)                -1.241300000000000E+02,      /* K = 25 */
(PID.TID 0000.0001)                -1.300100000000000E+02,      /* K = 26 */
(PID.TID 0000.0001)                -1.362550000000000E+02,      /* K = 27 */
(PID.TID 0000.0001)                -1.429650000000000E+02,      /* K = 28 */
(PID.TID 0000.0001)                -1.502600000000000E+02,      /* K = 29 */
(PID.TID 0000.0001)                -1.582800000000000E+02,      /* K = 30 */
(PID.TID 0000.0001)                -1.671700000000000E+02,      /* K = 31 */
(PID.TID 0000.0001)                -1.770800000000000E+02,      /* K = 32 */
(PID.TID 0000.0001)                -1.881700000000000E+02,      /* K = 33 */
(PID.TID 0000.0001)                -2.005950000000000E+02,      /* K = 34 */
(PID.TID 0000.0001)                -2.145100000000000E+02,      /* K = 35 */
(PID.TID 0000.0001)                -2.300600000000000E+02,      /* K = 36 */
(PID.TID 0000.0001)                -2.473800000000000E+02,      /* K = 37 */
(PID.TID 0000.0001)                -2.665900000000000E+02,      /* K = 38 */
(PID.TID 0000.0001)                -2.877850000000000E+02,      /* K = 39 */
(PID.TID 0000.0001)                -3.110350000000000E+02,      /* K = 40 */
(PID.TID 0000.0001)                -3.363950000000000E+02,      /* K = 41 */
(PID.TID 0000.0001)                -3.638950000000000E+02,      /* K = 42 */
(PID.TID 0000.0001)                -3.935350000000000E+02,      /* K = 43 */
(PID.TID 0000.0001)                -4.252850000000000E+02,      /* K = 44 */
(PID.TID 0000.0001)                -4.590900000000000E+02,      /* K = 45 */
(PID.TID 0000.0001)                -4.948800000000001E+02,      /* K = 46 */
(PID.TID 0000.0001)                -5.325600000000001E+02,      /* K = 47 */
(PID.TID 0000.0001)                -5.720100000000001E+02,      /* K = 48 */
(PID.TID 0000.0001)                -6.130950000000001E+02,      /* K = 49 */
(PID.TID 0000.0001)                -6.556700000000002E+02,      /* K = 50 */
(PID.TID 0000.0001)                -6.995800000000002E+02,      /* K = 51 */
(PID.TID 0000.0001)                -7.446700000000002E+02,      /* K = 52 */
(PID.TID 0000.0001)                -7.907800000000002E+02,      /* K = 53 */
(PID.TID 0000.0001)                -8.377600000000002E+02,      /* K = 54 */
(PID.TID 0000.0001)                -8.854650000000003E+02,      /* K = 55 */
(PID.TID 0000.0001)                -9.337550000000002E+02,      /* K = 56 */
(PID.TID 0000.0001)                -9.825100000000002E+02,      /* K = 57 */
(PID.TID 0000.0001)                -1.031635000000000E+03,      /* K = 58 */
(PID.TID 0000.0001)                -1.081045000000000E+03,      /* K = 59 */
(PID.TID 0000.0001)                -1.130670000000000E+03,      /* K = 60 */
(PID.TID 0000.0001)                -1.180480000000000E+03,      /* K = 61 */
(PID.TID 0000.0001)                -1.230485000000000E+03,      /* K = 62 */
(PID.TID 0000.0001)                -1.280745000000000E+03,      /* K = 63 */
(PID.TID 0000.0001)                -1.331410000000000E+03,      /* K = 64 */
(PID.TID 0000.0001)                -1.382715000000000E+03,      /* K = 65 */
(PID.TID 0000.0001)                -1.434995000000000E+03,      /* K = 66 */
(PID.TID 0000.0001)                -1.488700000000000E+03,      /* K = 67 */
(PID.TID 0000.0001)                -1.544365000000000E+03,      /* K = 68 */
(PID.TID 0000.0001)                -1.602595000000000E+03,      /* K = 69 */
(PID.TID 0000.0001)                -1.664010000000000E+03,      /* K = 70 */
(PID.TID 0000.0001)                -1.729220000000000E+03,      /* K = 71 */
(PID.TID 0000.0001)                -1.798765000000000E+03,      /* K = 72 */
(PID.TID 0000.0001)                -1.873095000000000E+03,      /* K = 73 */
(PID.TID 0000.0001)                -1.952565000000000E+03,      /* K = 74 */
(PID.TID 0000.0001)                -2.037425000000000E+03,      /* K = 75 */
(PID.TID 0000.0001)                -2.127840000000000E+03,      /* K = 76 */
(PID.TID 0000.0001)                -2.223905000000000E+03,      /* K = 77 */
(PID.TID 0000.0001)                -2.325680000000000E+03,      /* K = 78 */
(PID.TID 0000.0001)                -2.433190000000001E+03,      /* K = 79 */
(PID.TID 0000.0001)                -2.546440000000001E+03,      /* K = 80 */
(PID.TID 0000.0001)                -2.665435000000000E+03,      /* K = 81 */
(PID.TID 0000.0001)                -2.790185000000000E+03,      /* K = 82 */
(PID.TID 0000.0001)                -2.920690000000001E+03,      /* K = 83 */
(PID.TID 0000.0001)                -3.056940000000001E+03,      /* K = 84 */
(PID.TID 0000.0001)                -3.198935000000000E+03,      /* K = 85 */
(PID.TID 0000.0001)                -3.346685000000000E+03,      /* K = 86 */
(PID.TID 0000.0001)                -3.500190000000001E+03,      /* K = 87 */
(PID.TID 0000.0001)                -3.659440000000001E+03,      /* K = 88 */
(PID.TID 0000.0001)                -3.824435000000000E+03,      /* K = 89 */
(PID.TID 0000.0001)                -3.995185000000000E+03,      /* K = 90 */
(PID.TID 0000.0001)                -4.171690000000001E+03,      /* K = 91 */
(PID.TID 0000.0001)                -4.353940000000001E+03,      /* K = 92 */
(PID.TID 0000.0001)                -4.541935000000000E+03,      /* K = 93 */
(PID.TID 0000.0001)                -4.735685000000000E+03,      /* K = 94 */
(PID.TID 0000.0001)                -4.935190000000001E+03,      /* K = 95 */
(PID.TID 0000.0001)                -5.140440000000001E+03,      /* K = 96 */
(PID.TID 0000.0001)                -5.351435000000000E+03,      /* K = 97 */
(PID.TID 0000.0001)                -5.568185000000000E+03,      /* K = 98 */
(PID.TID 0000.0001)                -5.790690000000001E+03,      /* K = 99 */
(PID.TID 0000.0001)                -6.018940000000001E+03       /* K =100 */
(PID.TID 0000.0001)     ;
(PID.TID 0000.0001) rF =   /* W-Interf. R coordinate (  units of r ) */
(PID.TID 0000.0001)                 0.000000000000000E+00,      /* K =  1 */
(PID.TID 0000.0001)                -5.000000000000000E+00,      /* K =  2 */
(PID.TID 0000.0001)                -1.000000000000000E+01,      /* K =  3 */
(PID.TID 0000.0001)                -1.500000000000000E+01,      /* K =  4 */
(PID.TID 0000.0001)                -2.000000000000000E+01,      /* K =  5 */
(PID.TID 0000.0001)                -2.500000000000000E+01,      /* K =  6 */
(PID.TID 0000.0001)                -3.000000000000000E+01,      /* K =  7 */
(PID.TID 0000.0001)                -3.500000000000000E+01,      /* K =  8 */
(PID.TID 0000.0001)                -4.000000000000000E+01,      /* K =  9 */
(PID.TID 0000.0001)                -4.500000000000000E+01,      /* K = 10 */
(PID.TID 0000.0001)                -5.000000000000000E+01,      /* K = 11 */
(PID.TID 0000.0001)                -5.500000000000000E+01,      /* K = 12 */
(PID.TID 0000.0001)                -6.000000000000000E+01,      /* K = 13 */
(PID.TID 0000.0001)                -6.500000000000000E+01,      /* K = 14 */
(PID.TID 0000.0001)                -7.000000000000000E+01,      /* K = 15 */
(PID.TID 0000.0001)                -7.500000000000000E+01,      /* K = 16 */
(PID.TID 0000.0001)                -8.001000000000001E+01,      /* K = 17 */
(PID.TID 0000.0001)                -8.502000000000001E+01,      /* K = 18 */
(PID.TID 0000.0001)                -9.004000000000001E+01,      /* K = 19 */
(PID.TID 0000.0001)                -9.508000000000001E+01,      /* K = 20 */
(PID.TID 0000.0001)                -1.001500000000000E+02,      /* K = 21 */
(PID.TID 0000.0001)                -1.052700000000000E+02,      /* K = 22 */
(PID.TID 0000.0001)                -1.104700000000000E+02,      /* K = 23 */
(PID.TID 0000.0001)                -1.157800000000000E+02,      /* K = 24 */
(PID.TID 0000.0001)                -1.212700000000000E+02,      /* K = 25 */
(PID.TID 0000.0001)                -1.269900000000000E+02,      /* K = 26 */
(PID.TID 0000.0001)                -1.330300000000000E+02,      /* K = 27 */
(PID.TID 0000.0001)                -1.394800000000000E+02,      /* K = 28 */
(PID.TID 0000.0001)                -1.464500000000000E+02,      /* K = 29 */
(PID.TID 0000.0001)                -1.540700000000000E+02,      /* K = 30 */
(PID.TID 0000.0001)                -1.624900000000000E+02,      /* K = 31 */
(PID.TID 0000.0001)                -1.718500000000000E+02,      /* K = 32 */
(PID.TID 0000.0001)                -1.823100000000000E+02,      /* K = 33 */
(PID.TID 0000.0001)                -1.940300000000000E+02,      /* K = 34 */
(PID.TID 0000.0001)                -2.071600000000000E+02,      /* K = 35 */
(PID.TID 0000.0001)                -2.218600000000000E+02,      /* K = 36 */
(PID.TID 0000.0001)                -2.382600000000000E+02,      /* K = 37 */
(PID.TID 0000.0001)                -2.564999999999999E+02,      /* K = 38 */
(PID.TID 0000.0001)                -2.766799999999999E+02,      /* K = 39 */
(PID.TID 0000.0001)                -2.988899999999999E+02,      /* K = 40 */
(PID.TID 0000.0001)                -3.231799999999999E+02,      /* K = 41 */
(PID.TID 0000.0001)                -3.496100000000000E+02,      /* K = 42 */
(PID.TID 0000.0001)                -3.781799999999999E+02,      /* K = 43 */
(PID.TID 0000.0001)                -4.088899999999999E+02,      /* K = 44 */
(PID.TID 0000.0001)                -4.416799999999999E+02,      /* K = 45 */
(PID.TID 0000.0001)                -4.764999999999999E+02,      /* K = 46 */
(PID.TID 0000.0001)                -5.132600000000000E+02,      /* K = 47 */
(PID.TID 0000.0001)                -5.518600000000000E+02,      /* K = 48 */
(PID.TID 0000.0001)                -5.921600000000000E+02,      /* K = 49 */
(PID.TID 0000.0001)                -6.340300000000000E+02,      /* K = 50 */
(PID.TID 0000.0001)                -6.773099999999999E+02,      /* K = 51 */
(PID.TID 0000.0001)                -7.218499999999999E+02,      /* K = 52 */
(PID.TID 0000.0001)                -7.674899999999999E+02,      /* K = 53 */
(PID.TID 0000.0001)                -8.140699999999999E+02,      /* K = 54 */
(PID.TID 0000.0001)                -8.614499999999999E+02,      /* K = 55 */
(PID.TID 0000.0001)                -9.094799999999999E+02,      /* K = 56 */
(PID.TID 0000.0001)                -9.580299999999999E+02,      /* K = 57 */
(PID.TID 0000.0001)                -1.006990000000000E+03,      /* K = 58 */
(PID.TID 0000.0001)                -1.056280000000000E+03,      /* K = 59 */
(PID.TID 0000.0001)                -1.105810000000000E+03,      /* K = 60 */
(PID.TID 0000.0001)                -1.155530000000000E+03,      /* K = 61 */
(PID.TID 0000.0001)                -1.205430000000000E+03,      /* K = 62 */
(PID.TID 0000.0001)                -1.255540000000000E+03,      /* K = 63 */
(PID.TID 0000.0001)                -1.305950000000000E+03,      /* K = 64 */
(PID.TID 0000.0001)                -1.356870000000000E+03,      /* K = 65 */
(PID.TID 0000.0001)                -1.408560000000000E+03,      /* K = 66 */
(PID.TID 0000.0001)                -1.461430000000000E+03,      /* K = 67 */
(PID.TID 0000.0001)                -1.515970000000000E+03,      /* K = 68 */
(PID.TID 0000.0001)                -1.572760000000000E+03,      /* K = 69 */
(PID.TID 0000.0001)                -1.632430000000000E+03,      /* K = 70 */
(PID.TID 0000.0001)                -1.695590000000000E+03,      /* K = 71 */
(PID.TID 0000.0001)                -1.762850000000000E+03,      /* K = 72 */
(PID.TID 0000.0001)                -1.834680000000000E+03,      /* K = 73 */
(PID.TID 0000.0001)                -1.911510000000000E+03,      /* K = 74 */
(PID.TID 0000.0001)                -1.993620000000000E+03,      /* K = 75 */
(PID.TID 0000.0001)                -2.081230000000000E+03,      /* K = 76 */
(PID.TID 0000.0001)                -2.174450000000000E+03,      /* K = 77 */
(PID.TID 0000.0001)                -2.273360000000000E+03,      /* K = 78 */
(PID.TID 0000.0001)                -2.378000000000000E+03,      /* K = 79 */
(PID.TID 0000.0001)                -2.488380000000000E+03,      /* K = 80 */
(PID.TID 0000.0001)                -2.604500000000000E+03,      /* K = 81 */
(PID.TID 0000.0001)                -2.726369999999999E+03,      /* K = 82 */
(PID.TID 0000.0001)                -2.854000000000000E+03,      /* K = 83 */
(PID.TID 0000.0001)                -2.987380000000000E+03,      /* K = 84 */
(PID.TID 0000.0001)                -3.126500000000000E+03,      /* K = 85 */
(PID.TID 0000.0001)                -3.271369999999999E+03,      /* K = 86 */
(PID.TID 0000.0001)                -3.422000000000000E+03,      /* K = 87 */
(PID.TID 0000.0001)                -3.578380000000000E+03,      /* K = 88 */
(PID.TID 0000.0001)                -3.740500000000000E+03,      /* K = 89 */
(PID.TID 0000.0001)                -3.908369999999999E+03,      /* K = 90 */
(PID.TID 0000.0001)                -4.082000000000000E+03,      /* K = 91 */
(PID.TID 0000.0001)                -4.261379999999999E+03,      /* K = 92 */
(PID.TID 0000.0001)                -4.446499999999999E+03,      /* K = 93 */
(PID.TID 0000.0001)                -4.637369999999999E+03,      /* K = 94 */
(PID.TID 0000.0001)                -4.833999999999999E+03,      /* K = 95 */
(PID.TID 0000.0001)                -5.036379999999999E+03,      /* K = 96 */
(PID.TID 0000.0001)                -5.244499999999999E+03,      /* K = 97 */
(PID.TID 0000.0001)                -5.458369999999999E+03,      /* K = 98 */
(PID.TID 0000.0001)                -5.677999999999999E+03,      /* K = 99 */
(PID.TID 0000.0001)                -5.903379999999999E+03,      /* K =100 */
(PID.TID 0000.0001)                -6.134499999999999E+03       /* K =101 */
(PID.TID 0000.0001)     ;
(PID.TID 0000.0001) deepFacC = /* deep-model grid factor @ cell-Center (-) */
(PID.TID 0000.0001)   100 @  1.000000000000000E+00              /* K =  1:100 */
(PID.TID 0000.0001)     ;
(PID.TID 0000.0001) deepFacF = /* deep-model grid factor @ W-Interface (-) */
(PID.TID 0000.0001)   101 @  1.000000000000000E+00              /* K =  1:101 */
(PID.TID 0000.0001)     ;
(PID.TID 0000.0001) rVel2wUnit = /* convert units: rVel -> wSpeed (=1 if z-coord)*/
(PID.TID 0000.0001)   101 @  1.000000000000000E+00              /* K =  1:101 */
(PID.TID 0000.0001)     ;
(PID.TID 0000.0001) wUnit2rVel = /* convert units: wSpeed -> rVel (=1 if z-coord)*/
(PID.TID 0000.0001)   101 @  1.000000000000000E+00              /* K =  1:101 */
(PID.TID 0000.0001)     ;
(PID.TID 0000.0001) dBdrRef = /* Vertical grad. of reference buoyancy [(m/s/r)^2] */
(PID.TID 0000.0001)     5 @  0.000000000000000E+00,             /* K =  1:  5 */
(PID.TID 0000.0001)                 9.694282843778342E-06,      /* K =  6 */
(PID.TID 0000.0001)                 2.426513223807763E-05,      /* K =  7 */
(PID.TID 0000.0001)                 1.452975530153167E-05,      /* K =  8 */
(PID.TID 0000.0001)                 9.681498625854328E-06,      /* K =  9 */
(PID.TID 0000.0001)                 4.842099844624020E-05,      /* K = 10 */
(PID.TID 0000.0001)                 6.280856330023614E-05,      /* K = 11 */
(PID.TID 0000.0001)                 8.185617076656702E-05,      /* K = 12 */
(PID.TID 0000.0001)                 1.295252644691406E-04,      /* K = 13 */
(PID.TID 0000.0001)                 1.095351351384002E-04,      /* K = 14 */
(PID.TID 0000.0001)                 1.329169312007239E-04,      /* K = 15 */
(PID.TID 0000.0001)                 1.367041979360881E-04,      /* K = 16 */
(PID.TID 0000.0001)                 1.211727126593573E-04,      /* K = 17 */
(PID.TID 0000.0001)                 1.302265701121417E-04,      /* K = 18 */
(PID.TID 0000.0001)                 1.190854314588815E-04,      /* K = 19 */
(PID.TID 0000.0001)                 1.132023267377615E-04,      /* K = 20 */
(PID.TID 0000.0001)                 1.071632265654582E-04,      /* K = 21 */
(PID.TID 0000.0001)                 1.051393672457803E-04,      /* K = 22 */
(PID.TID 0000.0001)                 1.025752720636568E-04,      /* K = 23 */
(PID.TID 0000.0001)                 9.917395824143918E-05,      /* K = 24 */
(PID.TID 0000.0001)                 9.104030067387556E-05,      /* K = 25 */
(PID.TID 0000.0001)                 8.624441260795840E-05,      /* K = 26 */
(PID.TID 0000.0001)                 8.413036901537412E-05,      /* K = 27 */
(PID.TID 0000.0001)                 6.366728012651445E-05,      /* K = 28 */
(PID.TID 0000.0001)                 5.812092618380799E-05,      /* K = 29 */
(PID.TID 0000.0001)                 5.507951137016039E-05,      /* K = 30 */
(PID.TID 0000.0001)                 4.695510592930360E-05,      /* K = 31 */
(PID.TID 0000.0001)                 4.596409715692217E-05,      /* K = 32 */
(PID.TID 0000.0001)                 4.072795425761271E-05,      /* K = 33 */
(PID.TID 0000.0001)                 3.175298295526856E-05,      /* K = 34 */
(PID.TID 0000.0001)                 3.093452381022950E-05,      /* K = 35 */
(PID.TID 0000.0001)                 2.864003459600112E-05,      /* K = 36 */
(PID.TID 0000.0001)                 2.767315329576147E-05,      /* K = 37 */
(PID.TID 0000.0001)                 2.463000191580109E-05,      /* K = 38 */
(PID.TID 0000.0001)                 2.475053767167416E-05,      /* K = 39 */
(PID.TID 0000.0001)                 1.906506350221241E-05,      /* K = 40 */
(PID.TID 0000.0001)                 1.865582618722828E-05,      /* K = 41 */
(PID.TID 0000.0001)                 1.823366094760355E-05,      /* K = 42 */
(PID.TID 0000.0001)                 1.471037885515795E-05,      /* K = 43 */
(PID.TID 0000.0001)                 1.630603945735049E-05,      /* K = 44 */
(PID.TID 0000.0001)                 1.384745352787863E-05,      /* K = 45 */
(PID.TID 0000.0001)                 1.226594411185851E-05,      /* K = 46 */
(PID.TID 0000.0001)                 1.225310460290910E-05,      /* K = 47 */
(PID.TID 0000.0001)                 1.223011113144029E-05,      /* K = 48 */
(PID.TID 0000.0001)                 1.061638239990844E-05,      /* K = 49 */
(PID.TID 0000.0001)                 1.070650633014499E-05,      /* K = 50 */
(PID.TID 0000.0001)                 9.357472423340062E-06,      /* K = 51 */
(PID.TID 0000.0001)                 9.812756875994976E-06,      /* K = 52 */
(PID.TID 0000.0001)                 9.364680965538371E-06,      /* K = 53 */
(PID.TID 0000.0001)                 6.430982300518885E-06,      /* K = 54 */
(PID.TID 0000.0001)                 8.970058816087760E-06,      /* K = 55 */
(PID.TID 0000.0001)                 8.398462027768182E-06,      /* K = 56 */
(PID.TID 0000.0001)                 7.294531901104187E-06,      /* K = 57 */
(PID.TID 0000.0001)                 8.642565592484861E-06,      /* K = 58 */
(PID.TID 0000.0001)                 6.405731826441176E-06,      /* K = 59 */
(PID.TID 0000.0001)                 8.743452988220992E-06,      /* K = 60 */
(PID.TID 0000.0001)                 6.590306221026928E-06,      /* K = 61 */
(PID.TID 0000.0001)                 7.462277694900194E-06,      /* K = 62 */
(PID.TID 0000.0001)                 5.625478499738029E-06,      /* K = 63 */
(PID.TID 0000.0001)                 6.494457456351866E-06,      /* K = 64 */
(PID.TID 0000.0001)                 5.872364624284492E-06,      /* K = 65 */
(PID.TID 0000.0001)                 5.495436518643386E-06,      /* K = 66 */
(PID.TID 0000.0001)                 5.094601592541214E-06,      /* K = 67 */
(PID.TID 0000.0001)                 4.437172619322077E-06,      /* K = 68 */
(PID.TID 0000.0001)                 4.016940542409763E-06,      /* K = 69 */
(PID.TID 0000.0001)                 4.028908121728164E-06,      /* K = 70 */
(PID.TID 0000.0001)                 2.246388502686123E-06,      /* K = 71 */
(PID.TID 0000.0001)                 2.998142894531076E-06,      /* K = 72 */
(PID.TID 0000.0001)                 2.815413573924730E-06,      /* K = 73 */
(PID.TID 0000.0001)                 2.814329879263964E-06,      /* K = 74 */
(PID.TID 0000.0001)                 2.327158902006369E-06,      /* K = 75 */
(PID.TID 0000.0001)                 1.523559191918705E-06,      /* K = 76 */
(PID.TID 0000.0001)                 2.223754279938488E-06,      /* K = 77 */
(PID.TID 0000.0001)                 1.243572598777220E-06,      /* K = 78 */
(PID.TID 0000.0001)                 1.884009398486976E-06,      /* K = 79 */
(PID.TID 0000.0001)                 1.146309977456730E-06,      /* K = 80 */
(PID.TID 0000.0001)                 9.836409573498765E-07,      /* K = 81 */
(PID.TID 0000.0001)                 1.666564082034753E-06,      /* K = 82 */
(PID.TID 0000.0001)                 8.096789666921265E-07,      /* K = 83 */
(PID.TID 0000.0001)                 9.015806361848934E-07,      /* K = 84 */
(PID.TID 0000.0001)                 9.899996711216439E-07,      /* K = 85 */
(PID.TID 0000.0001)                 1.360959195968683E-06,      /* K = 86 */
(PID.TID 0000.0001)                 3.633635105266278E-07,      /* K = 87 */
(PID.TID 0000.0001)                 7.257552276248978E-07,      /* K = 88 */
(PID.TID 0000.0001)                 8.165089567519712E-07,      /* K = 89 */
(PID.TID 0000.0001)                 7.043987264958734E-07,      /* K = 90 */
(PID.TID 0000.0001)                 6.956983617110328E-07,      /* K = 91 */
(PID.TID 0000.0001)                 6.880703959048398E-07,      /* K = 92 */
(PID.TID 0000.0001)                 6.813676413074075E-07,      /* K = 93 */
(PID.TID 0000.0001)                 6.754628223828996E-07,      /* K = 94 */
(PID.TID 0000.0001)                 3.049729588883796E-07,      /* K = 95 */
(PID.TID 0000.0001)                 6.657955553385863E-07,      /* K = 96 */
(PID.TID 0000.0001)                 5.675084375793845E-07,      /* K = 97 */
(PID.TID 0000.0001)                 3.767262833194376E-07,      /* K = 98 */
(PID.TID 0000.0001)                 2.816808424830599E-07,      /* K = 99 */
(PID.TID 0000.0001)                 1.873891169846885E-07       /* K =100 */
(PID.TID 0000.0001)     ;
(PID.TID 0000.0001) rotateGrid = /* use rotated grid ( True/False ) */
(PID.TID 0000.0001)                   F
(PID.TID 0000.0001)     ;
(PID.TID 0000.0001) phiEuler = /* Euler angle, rotation about original z-coordinate [rad] */
(PID.TID 0000.0001)                 0.000000000000000E+00
(PID.TID 0000.0001)     ;
(PID.TID 0000.0001) thetaEuler = /* Euler angle, rotation about new x-coordinate [rad] */
(PID.TID 0000.0001)                 0.000000000000000E+00
(PID.TID 0000.0001)     ;
(PID.TID 0000.0001) psiEuler = /* Euler angle, rotation about new z-coordinate [rad] */
(PID.TID 0000.0001)                 0.000000000000000E+00
(PID.TID 0000.0001)     ;
(PID.TID 0000.0001) dxF =  /* dxF(:,1,:,1) ( units: m ) */
(PID.TID 0000.0001)    20 @  2.535840438609510E+03              /* I =  1: 20 */
(PID.TID 0000.0001)     ;
(PID.TID 0000.0001) dxF =  /* dxF(1,:,1,:) ( units: m ) */
(PID.TID 0000.0001)                 2.535840438609510E+03,      /* J =  1 */
(PID.TID 0000.0001)                 2.535373178112419E+03,      /* J =  2 */
(PID.TID 0000.0001)                 2.534905582407504E+03,      /* J =  3 */
(PID.TID 0000.0001)                 2.534437651556586E+03,      /* J =  4 */
(PID.TID 0000.0001)                 2.533969385621534E+03,      /* J =  5 */
(PID.TID 0000.0001)                 2.533500784664254E+03,      /* J =  6 */
(PID.TID 0000.0001)                 2.533031848746704E+03,      /* J =  7 */
(PID.TID 0000.0001)                 2.532562577930883E+03,      /* J =  8 */
(PID.TID 0000.0001)                 2.532092972278834E+03,      /* J =  9 */
(PID.TID 0000.0001)                 2.531623031852645E+03,      /* J = 10 */
(PID.TID 0000.0001)                 2.531152756714447E+03,      /* J = 11 */
(PID.TID 0000.0001)                 2.530682146926416E+03,      /* J = 12 */
(PID.TID 0000.0001)                 2.530211202550775E+03,      /* J = 13 */
(PID.TID 0000.0001)                 2.529739923649786E+03,      /* J = 14 */
(PID.TID 0000.0001)                 2.529268310285759E+03,      /* J = 15 */
(PID.TID 0000.0001)                 2.528796362521047E+03,      /* J = 16 */
(PID.TID 0000.0001)                 2.528324080418047E+03,      /* J = 17 */
(PID.TID 0000.0001)                 2.527851464039202E+03,      /* J = 18 */
(PID.TID 0000.0001)                 2.527378513446996E+03,      /* J = 19 */
(PID.TID 0000.0001)                 2.526905228703960E+03       /* J = 20 */
(PID.TID 0000.0001)     ;
(PID.TID 0000.0001) dyF =  /* dyF(:,1,:,1) ( units: m ) */
(PID.TID 0000.0001)    20 @  2.316197361500771E+03              /* I =  1: 20 */
(PID.TID 0000.0001)     ;
(PID.TID 0000.0001) dyF =  /* dyF(1,:,1,:) ( units: m ) */
(PID.TID 0000.0001)    20 @  2.316197361500771E+03              /* J =  1: 20 */
(PID.TID 0000.0001)     ;
(PID.TID 0000.0001) dxG =  /* dxG(:,1,:,1) ( units: m ) */
(PID.TID 0000.0001)    20 @  2.536073943135814E+03              /* I =  1: 20 */
(PID.TID 0000.0001)     ;
(PID.TID 0000.0001) dxG =  /* dxG(1,:,1,:) ( units: m ) */
(PID.TID 0000.0001)                 2.536073943135814E+03,      /* J =  1 */
(PID.TID 0000.0001)                 2.535606850265804E+03,      /* J =  2 */
(PID.TID 0000.0001)                 2.535139422157077E+03,      /* J =  3 */
(PID.TID 0000.0001)                 2.534671658871430E+03,      /* J =  4 */
(PID.TID 0000.0001)                 2.534203560470708E+03,      /* J =  5 */
(PID.TID 0000.0001)                 2.533735127016800E+03,      /* J =  6 */
(PID.TID 0000.0001)                 2.533266358571639E+03,      /* J =  7 */
(PID.TID 0000.0001)                 2.532797255197202E+03,      /* J =  8 */
(PID.TID 0000.0001)                 2.532327816955507E+03,      /* J =  9 */
(PID.TID 0000.0001)                 2.531858043908624E+03,      /* J = 10 */
(PID.TID 0000.0001)                 2.531387936118661E+03,      /* J = 11 */
(PID.TID 0000.0001)                 2.530917493647773E+03,      /* J = 12 */
(PID.TID 0000.0001)                 2.530446716558156E+03,      /* J = 13 */
(PID.TID 0000.0001)                 2.529975604912055E+03,      /* J = 14 */
(PID.TID 0000.0001)                 2.529504158771756E+03,      /* J = 15 */
(PID.TID 0000.0001)                 2.529032378199590E+03,      /* J = 16 */
(PID.TID 0000.0001)                 2.528560263257931E+03,      /* J = 17 */
(PID.TID 0000.0001)                 2.528087814009201E+03,      /* J = 18 */
(PID.TID 0000.0001)                 2.527615030515862E+03,      /* J = 19 */
(PID.TID 0000.0001)                 2.527141912840421E+03       /* J = 20 */
(PID.TID 0000.0001)     ;
(PID.TID 0000.0001) dyG =  /* dyG(:,1,:,1) ( units: m ) */
(PID.TID 0000.0001)    20 @  2.316197361500771E+03              /* I =  1: 20 */
(PID.TID 0000.0001)     ;
(PID.TID 0000.0001) dyG =  /* dyG(1,:,1,:) ( units: m ) */
(PID.TID 0000.0001)    20 @  2.316197361500771E+03              /* J =  1: 20 */
(PID.TID 0000.0001)     ;
(PID.TID 0000.0001) dxC =  /* dxC(:,1,:,1) ( units: m ) */
(PID.TID 0000.0001)    20 @  2.535840438609510E+03              /* I =  1: 20 */
(PID.TID 0000.0001)     ;
(PID.TID 0000.0001) dxC =  /* dxC(1,:,1,:) ( units: m ) */
(PID.TID 0000.0001)                 2.535840438609510E+03,      /* J =  1 */
(PID.TID 0000.0001)                 2.535373178112419E+03,      /* J =  2 */
(PID.TID 0000.0001)                 2.534905582407504E+03,      /* J =  3 */
(PID.TID 0000.0001)                 2.534437651556586E+03,      /* J =  4 */
(PID.TID 0000.0001)                 2.533969385621534E+03,      /* J =  5 */
(PID.TID 0000.0001)                 2.533500784664254E+03,      /* J =  6 */
(PID.TID 0000.0001)                 2.533031848746704E+03,      /* J =  7 */
(PID.TID 0000.0001)                 2.532562577930883E+03,      /* J =  8 */
(PID.TID 0000.0001)                 2.532092972278834E+03,      /* J =  9 */
(PID.TID 0000.0001)                 2.531623031852645E+03,      /* J = 10 */
(PID.TID 0000.0001)                 2.531152756714447E+03,      /* J = 11 */
(PID.TID 0000.0001)                 2.530682146926416E+03,      /* J = 12 */
(PID.TID 0000.0001)                 2.530211202550775E+03,      /* J = 13 */
(PID.TID 0000.0001)                 2.529739923649786E+03,      /* J = 14 */
(PID.TID 0000.0001)                 2.529268310285759E+03,      /* J = 15 */
(PID.TID 0000.0001)                 2.528796362521047E+03,      /* J = 16 */
(PID.TID 0000.0001)                 2.528324080418047E+03,      /* J = 17 */
(PID.TID 0000.0001)                 2.527851464039202E+03,      /* J = 18 */
(PID.TID 0000.0001)                 2.527378513446996E+03,      /* J = 19 */
(PID.TID 0000.0001)                 2.526905228703960E+03       /* J = 20 */
(PID.TID 0000.0001)     ;
(PID.TID 0000.0001) dyC =  /* dyC(:,1,:,1) ( units: m ) */
(PID.TID 0000.0001)    20 @  2.316197361500771E+03              /* I =  1: 20 */
(PID.TID 0000.0001)     ;
(PID.TID 0000.0001) dyC =  /* dyC(1,:,1,:) ( units: m ) */
(PID.TID 0000.0001)    20 @  2.316197361500771E+03              /* J =  1: 20 */
(PID.TID 0000.0001)     ;
(PID.TID 0000.0001) dxV =  /* dxV(:,1,:,1) ( units: m ) */
(PID.TID 0000.0001)    20 @  2.536073943135814E+03              /* I =  1: 20 */
(PID.TID 0000.0001)     ;
(PID.TID 0000.0001) dxV =  /* dxV(1,:,1,:) ( units: m ) */
(PID.TID 0000.0001)                 2.536073943135814E+03,      /* J =  1 */
(PID.TID 0000.0001)                 2.535606850265804E+03,      /* J =  2 */
(PID.TID 0000.0001)                 2.535139422157077E+03,      /* J =  3 */
(PID.TID 0000.0001)                 2.534671658871430E+03,      /* J =  4 */
(PID.TID 0000.0001)                 2.534203560470708E+03,      /* J =  5 */
(PID.TID 0000.0001)                 2.533735127016800E+03,      /* J =  6 */
(PID.TID 0000.0001)                 2.533266358571639E+03,      /* J =  7 */
(PID.TID 0000.0001)                 2.532797255197202E+03,      /* J =  8 */
(PID.TID 0000.0001)                 2.532327816955507E+03,      /* J =  9 */
(PID.TID 0000.0001)                 2.531858043908624E+03,      /* J = 10 */
(PID.TID 0000.0001)                 2.531387936118661E+03,      /* J = 11 */
(PID.TID 0000.0001)                 2.530917493647773E+03,      /* J = 12 */
(PID.TID 0000.0001)                 2.530446716558156E+03,      /* J = 13 */
(PID.TID 0000.0001)                 2.529975604912055E+03,      /* J = 14 */
(PID.TID 0000.0001)                 2.529504158771756E+03,      /* J = 15 */
(PID.TID 0000.0001)                 2.529032378199590E+03,      /* J = 16 */
(PID.TID 0000.0001)                 2.528560263257931E+03,      /* J = 17 */
(PID.TID 0000.0001)                 2.528087814009201E+03,      /* J = 18 */
(PID.TID 0000.0001)                 2.527615030515862E+03,      /* J = 19 */
(PID.TID 0000.0001)                 2.527141912840421E+03       /* J = 20 */
(PID.TID 0000.0001)     ;
(PID.TID 0000.0001) dyU =  /* dyU(:,1,:,1) ( units: m ) */
(PID.TID 0000.0001)    20 @  2.316197361500771E+03              /* I =  1: 20 */
(PID.TID 0000.0001)     ;
(PID.TID 0000.0001) dyU =  /* dyU(1,:,1,:) ( units: m ) */
(PID.TID 0000.0001)    20 @  2.316197361500771E+03              /* J =  1: 20 */
(PID.TID 0000.0001)     ;
(PID.TID 0000.0001) rA  =  /* rA (:,1,:,1) ( units: m^2 ) */
(PID.TID 0000.0001)    20 @  5.873506900737926E+06              /* I =  1: 20 */
(PID.TID 0000.0001)     ;
(PID.TID 0000.0001) rA  =  /* rA (1,:,1,:) ( units: m^2 ) */
(PID.TID 0000.0001)                 5.873506900737926E+06,      /* J =  1 */
(PID.TID 0000.0001)                 5.872424633213482E+06,      /* J =  2 */
(PID.TID 0000.0001)                 5.871341589280462E+06,      /* J =  3 */
(PID.TID 0000.0001)                 5.870257769085622E+06,      /* J =  4 */
(PID.TID 0000.0001)                 5.869173172767677E+06,      /* J =  5 */
(PID.TID 0000.0001)                 5.868087800472379E+06,      /* J =  6 */
(PID.TID 0000.0001)                 5.867001652343468E+06,      /* J =  7 */
(PID.TID 0000.0001)                 5.865914728524683E+06,      /* J =  8 */
(PID.TID 0000.0001)                 5.864827029158763E+06,      /* J =  9 */
(PID.TID 0000.0001)                 5.863738554388439E+06,      /* J = 10 */
(PID.TID 0000.0001)                 5.862649304360472E+06,      /* J = 11 */
(PID.TID 0000.0001)                 5.861559279217593E+06,      /* J = 12 */
(PID.TID 0000.0001)                 5.860468479102541E+06,      /* J = 13 */
(PID.TID 0000.0001)                 5.859376904163075E+06,      /* J = 14 */
(PID.TID 0000.0001)                 5.858284554538916E+06,      /* J = 15 */
(PID.TID 0000.0001)                 5.857191430376820E+06,      /* J = 16 */
(PID.TID 0000.0001)                 5.856097531822538E+06,      /* J = 17 */
(PID.TID 0000.0001)                 5.855002859018806E+06,      /* J = 18 */
(PID.TID 0000.0001)                 5.853907412111375E+06,      /* J = 19 */
(PID.TID 0000.0001)                 5.852811191243984E+06       /* J = 20 */
(PID.TID 0000.0001)     ;
(PID.TID 0000.0001) rAw =  /* rAw(:,1,:,1) ( units: m^2 ) */
(PID.TID 0000.0001)    20 @  5.873506900737926E+06              /* I =  1: 20 */
(PID.TID 0000.0001)     ;
(PID.TID 0000.0001) rAw =  /* rAw(1,:,1,:) ( units: m^2 ) */
(PID.TID 0000.0001)                 5.873506900737926E+06,      /* J =  1 */
(PID.TID 0000.0001)                 5.872424633213482E+06,      /* J =  2 */
(PID.TID 0000.0001)                 5.871341589280462E+06,      /* J =  3 */
(PID.TID 0000.0001)                 5.870257769085622E+06,      /* J =  4 */
(PID.TID 0000.0001)                 5.869173172767677E+06,      /* J =  5 */
(PID.TID 0000.0001)                 5.868087800472379E+06,      /* J =  6 */
(PID.TID 0000.0001)                 5.867001652343468E+06,      /* J =  7 */
(PID.TID 0000.0001)                 5.865914728524683E+06,      /* J =  8 */
(PID.TID 0000.0001)                 5.864827029158763E+06,      /* J =  9 */
(PID.TID 0000.0001)                 5.863738554388439E+06,      /* J = 10 */
(PID.TID 0000.0001)                 5.862649304360472E+06,      /* J = 11 */
(PID.TID 0000.0001)                 5.861559279217593E+06,      /* J = 12 */
(PID.TID 0000.0001)                 5.860468479102541E+06,      /* J = 13 */
(PID.TID 0000.0001)                 5.859376904163075E+06,      /* J = 14 */
(PID.TID 0000.0001)                 5.858284554538916E+06,      /* J = 15 */
(PID.TID 0000.0001)                 5.857191430376820E+06,      /* J = 16 */
(PID.TID 0000.0001)                 5.856097531822538E+06,      /* J = 17 */
(PID.TID 0000.0001)                 5.855002859018806E+06,      /* J = 18 */
(PID.TID 0000.0001)                 5.853907412111375E+06,      /* J = 19 */
(PID.TID 0000.0001)                 5.852811191243984E+06       /* J = 20 */
(PID.TID 0000.0001)     ;
(PID.TID 0000.0001) rAs =  /* rAs(:,1,:,1) ( units: m^2 ) */
(PID.TID 0000.0001)    20 @  5.874047743303208E+06              /* I =  1: 20 */
(PID.TID 0000.0001)     ;
(PID.TID 0000.0001) rAs =  /* rAs(1,:,1,:) ( units: m^2 ) */
(PID.TID 0000.0001)                 5.874047743303208E+06,      /* J =  1 */
(PID.TID 0000.0001)                 5.872965864036325E+06,      /* J =  2 */
(PID.TID 0000.0001)                 5.871883208289499E+06,      /* J =  3 */
(PID.TID 0000.0001)                 5.870799776207477E+06,      /* J =  4 */
(PID.TID 0000.0001)                 5.869715567932991E+06,      /* J =  5 */
(PID.TID 0000.0001)                 5.868630583608779E+06,      /* J =  6 */
(PID.TID 0000.0001)                 5.867544823377576E+06,      /* J =  7 */
(PID.TID 0000.0001)                 5.866458287387143E+06,      /* J =  8 */
(PID.TID 0000.0001)                 5.865370975776194E+06,      /* J =  9 */
(PID.TID 0000.0001)                 5.864282888689476E+06,      /* J = 10 */
(PID.TID 0000.0001)                 5.863194026273745E+06,      /* J = 11 */
(PID.TID 0000.0001)                 5.862104388669726E+06,      /* J = 12 */
(PID.TID 0000.0001)                 5.861013976022165E+06,      /* J = 13 */
(PID.TID 0000.0001)                 5.859922788475808E+06,      /* J = 14 */
(PID.TID 0000.0001)                 5.858830826177410E+06,      /* J = 15 */
(PID.TID 0000.0001)                 5.857738089266692E+06,      /* J = 16 */
(PID.TID 0000.0001)                 5.856644577889404E+06,      /* J = 17 */
(PID.TID 0000.0001)                 5.855550292192305E+06,      /* J = 18 */
(PID.TID 0000.0001)                 5.854455232319131E+06,      /* J = 19 */
(PID.TID 0000.0001)                 5.853359398412622E+06       /* J = 20 */
(PID.TID 0000.0001)     ;
(PID.TID 0000.0001) globalArea = /* Integrated horizontal Area (m^2) */
(PID.TID 0000.0001)                 1.137060469841927E+13
(PID.TID 0000.0001)     ;
(PID.TID 0000.0001) // =======================================================
(PID.TID 0000.0001) // End of Model config. summary
(PID.TID 0000.0001) // =======================================================
(PID.TID 0000.0001) 
(PID.TID 0000.0001) == Packages configuration : Check & print summary ==
(PID.TID 0000.0001) 
(PID.TID 0000.0001) OBCS_CHECK: #define ALLOW_OBCS
(PID.TID 0000.0001) OBCS_CHECK: start summary:
(PID.TID 0000.0001) useOBCSprescribe = /* prescribe OB values */
(PID.TID 0000.0001)                   T
(PID.TID 0000.0001)     ;
(PID.TID 0000.0001) useOBCSbalance = /* balance the flow through OB */
(PID.TID 0000.0001)                   T
(PID.TID 0000.0001)     ;
(PID.TID 0000.0001) OBCS_balanceFacN = /* Northern OB Factor for balancing OB flow [-] */
(PID.TID 0000.0001)                -1.000000000000000E+00
(PID.TID 0000.0001)     ;
(PID.TID 0000.0001) OBCS_balanceFacS = /* Southern OB Factor for balancing OB flow [-] */
(PID.TID 0000.0001)                -1.000000000000000E+00
(PID.TID 0000.0001)     ;
(PID.TID 0000.0001) OBCS_balanceFacE = /* Eastern  OB Factor for balancing OB flow [-] */
(PID.TID 0000.0001)                -1.000000000000000E+00
(PID.TID 0000.0001)     ;
(PID.TID 0000.0001) OBCS_balanceFacW = /* Western  OB Factor for balancing OB flow [-] */
(PID.TID 0000.0001)                 1.000000000000000E+00
(PID.TID 0000.0001)     ;
(PID.TID 0000.0001) OBCS_uvApplyFac = /* Factor to apply to U,V 2nd column/row */
(PID.TID 0000.0001)                 1.000000000000000E+00
(PID.TID 0000.0001)     ;
(PID.TID 0000.0001) OBCS_u1_adv_T = /* Temp uses upwind adv-scheme @ OB */
(PID.TID 0000.0001)                       1
(PID.TID 0000.0001)     ;
(PID.TID 0000.0001) OBCS_u1_adv_S = /* Salt uses upwind adv-scheme @ OB */
(PID.TID 0000.0001)                       1
(PID.TID 0000.0001)     ;
(PID.TID 0000.0001) OBCS_u1_adv_Tr = /* pTr uses upwind adv-scheme @ OB */
(PID.TID 0000.0001)     2 @        0
(PID.TID 0000.0001)     ;
(PID.TID 0000.0001) OBCS_monitorFreq = /* monitor output frequency [s] */
(PID.TID 0000.0001)                 3.600000000000000E+03
(PID.TID 0000.0001)     ;
(PID.TID 0000.0001) OBCS_monSelect = /* select group of variables to monitor */
(PID.TID 0000.0001)                       3
(PID.TID 0000.0001)     ;
(PID.TID 0000.0001) useOBCStides = /* apply tidal forcing through OB */
(PID.TID 0000.0001)                   T
(PID.TID 0000.0001)     ;
(PID.TID 0000.0001) tidalPeriod = /* (s) */
(PID.TID 0000.0001)                 4.471416500000000E+04,      /* I =  1 */
(PID.TID 0000.0001)                 4.320000100000000E+04,      /* I =  2 */
(PID.TID 0000.0001)                 4.557005400000000E+04,      /* I =  3 */
(PID.TID 0000.0001)                 4.308205000000000E+04,      /* I =  4 */
(PID.TID 0000.0001)                 8.616407700000000E+04,      /* I =  5 */
(PID.TID 0000.0001)                 9.294963600000000E+04,      /* I =  6 */
(PID.TID 0000.0001)                 8.663720000000000E+04,      /* I =  7 */
(PID.TID 0000.0001)                 9.672608600000000E+04,      /* I =  8 */
(PID.TID 0000.0001)                 1.180295546000000E+06,      /* I =  9 */
(PID.TID 0000.0001)                 2.380715864000000E+06,      /* I = 10 */
(PID.TID 0000.0001)                 2.235709100000000E+04,      /* I = 11 */
(PID.TID 0000.0001)                 2.197202200000000E+04,      /* I = 12 */
(PID.TID 0000.0001)                 2.256904200000000E+04       /* I = 13 */
(PID.TID 0000.0001)     ;
(PID.TID 0000.0001) OB_indexNone = /* null value for OB index (i.e. no OB) */
(PID.TID 0000.0001)                     -99
(PID.TID 0000.0001)     ;
(PID.TID 0000.0001) ======== Tile bi=   1 , bj=   1 ========
(PID.TID 0000.0001)  OB_Jn = /* Northern OB local indices */
(PID.TID 0000.0001)    28 @      -99                            /* I = -3: 24 */
(PID.TID 0000.0001)  OB_Js = /* Southern OB local indices */
(PID.TID 0000.0001)     4 @      -99,                           /* I = -3:  0 */
(PID.TID 0000.0001)    24 @        1                            /* I =  1: 24 */
(PID.TID 0000.0001)  OB_Ie = /* Eastern OB local indices */
(PID.TID 0000.0001)    28 @      -99                            /* J = -3: 24 */
(PID.TID 0000.0001)  OB_Iw = /* Western OB local indices */
(PID.TID 0000.0001)    28 @      -99                            /* J = -3: 24 */
(PID.TID 0000.0001) OBCS_CHECK: end summary.
(PID.TID 0000.0001) OBCS_CHECK: set-up OK
(PID.TID 0000.0001) OBCS_CHECK: check Inside Mask and OB locations: OK
(PID.TID 0000.0001) KPP_CHECK: #define ALLOW_KPP
(PID.TID 0000.0001)  kpp_freq = /* frequency of KPP calculation */
(PID.TID 0000.0001)                 8.000000000000000E+01
(PID.TID 0000.0001)     ;
(PID.TID 0000.0001) KPP_ghatUseTotalDiffus= /* non-local term fct of total diffus */
(PID.TID 0000.0001)                   F
(PID.TID 0000.0001)     ;
(PID.TID 0000.0001) KPPuseDoubleDiff = /* include double diffusive contrib */
(PID.TID 0000.0001)                   F
(PID.TID 0000.0001)     ;
(PID.TID 0000.0001) LimitHblStable = /* limits depth of hbl if stable cond.*/
(PID.TID 0000.0001)                   T
(PID.TID 0000.0001)     ;
(PID.TID 0000.0001)  minKPPhbl = /* minimum KPPhbl value [m] */
(PID.TID 0000.0001)                 2.500000000000000E+00
(PID.TID 0000.0001)     ;
(PID.TID 0000.0001)  epsln     = /* constant [-] */
(PID.TID 0000.0001)                 9.999999999999999E-21
(PID.TID 0000.0001)     ;
(PID.TID 0000.0001)  phepsi    = /* constant [-] */
(PID.TID 0000.0001)                 1.000000000000000E-10
(PID.TID 0000.0001)     ;
(PID.TID 0000.0001)  epsilon   = /* constant [-] */
(PID.TID 0000.0001)                 1.000000000000000E-01
(PID.TID 0000.0001)     ;
(PID.TID 0000.0001)  vonk      = /* Von Karmans constant [-] */
(PID.TID 0000.0001)                 4.000000000000000E-01
(PID.TID 0000.0001)     ;
(PID.TID 0000.0001)  dB_dz     = /* maximum N^2 in mixed layer [s^-2] */
(PID.TID 0000.0001)                 5.200000000000000E-05
(PID.TID 0000.0001)     ;
(PID.TID 0000.0001)  conc1     = /* scalar constant [-] */
(PID.TID 0000.0001)                 5.000000000000000E+00
(PID.TID 0000.0001)     ;
(PID.TID 0000.0001)  conam     = /* scalar constant [-] */
(PID.TID 0000.0001)                 1.257000000000000E+00
(PID.TID 0000.0001)     ;
(PID.TID 0000.0001)  concm     = /* scalar constant [-] */
(PID.TID 0000.0001)                 8.380000000000001E+00
(PID.TID 0000.0001)     ;
(PID.TID 0000.0001)  conc2     = /* scalar constant [-] */
(PID.TID 0000.0001)                 1.600000000000000E+01
(PID.TID 0000.0001)     ;
(PID.TID 0000.0001)  conas     = /* scalar constant [-] */
(PID.TID 0000.0001)                -2.886000000000000E+01
(PID.TID 0000.0001)     ;
(PID.TID 0000.0001)  concs     = /* scalar constant [-] */
(PID.TID 0000.0001)                 9.895999999999999E+01
(PID.TID 0000.0001)     ;
(PID.TID 0000.0001)  conc3     = /* scalar constant [-] */
(PID.TID 0000.0001)                 1.600000000000000E+01
(PID.TID 0000.0001)     ;
(PID.TID 0000.0001)  zetam     = /* scalar constant [-] */
(PID.TID 0000.0001)                -2.000000000000000E-01
(PID.TID 0000.0001)     ;
(PID.TID 0000.0001)  zetas     = /* scalar constant [-] */
(PID.TID 0000.0001)                -1.000000000000000E+00
(PID.TID 0000.0001)     ;
(PID.TID 0000.0001)  Ricr      = /* critical bulk Richardson Number [-] */
(PID.TID 0000.0001)                 3.000000000000000E-01
(PID.TID 0000.0001)     ;
(PID.TID 0000.0001)  cekman    = /* coeff for Ekman depth [-] */
(PID.TID 0000.0001)                 7.000000000000000E-01
(PID.TID 0000.0001)     ;
(PID.TID 0000.0001)  cmonob    = /* coeff for Monin-Obukhov depth [-] */
(PID.TID 0000.0001)                 1.000000000000000E+00
(PID.TID 0000.0001)     ;
(PID.TID 0000.0001)  concv     = /* buoyancy freq ratio [-] */
(PID.TID 0000.0001)                 1.800000000000000E+00
(PID.TID 0000.0001)     ;
(PID.TID 0000.0001)  hbf       = /* solar radiation depth ratio [-] */
(PID.TID 0000.0001)                 1.000000000000000E+00
(PID.TID 0000.0001)     ;
(PID.TID 0000.0001)  zmin      = /* minimum for zehat in table [m3/s3] */
(PID.TID 0000.0001)                -4.000000000000000E-07
(PID.TID 0000.0001)     ;
(PID.TID 0000.0001)  zmax      = /* maximum for zehat in table [m3/s3] */
(PID.TID 0000.0001)                 0.000000000000000E+00
(PID.TID 0000.0001)     ;
(PID.TID 0000.0001)  umin      = /* minimum for ustar in table [m/s] */
(PID.TID 0000.0001)                 0.000000000000000E+00
(PID.TID 0000.0001)     ;
(PID.TID 0000.0001)  umax      = /* maximum for ustar in table [m/s] */
(PID.TID 0000.0001)                 4.000000000000000E-02
(PID.TID 0000.0001)     ;
(PID.TID 0000.0001) num_v_smooth_Ri = /* number of vertical smoothing */
(PID.TID 0000.0001)                       0
(PID.TID 0000.0001)     ;
(PID.TID 0000.0001)  Riinfty   = /* shear instability Ri number limit [-] */
(PID.TID 0000.0001)                 7.000000000000000E-01
(PID.TID 0000.0001)     ;
(PID.TID 0000.0001)  BVSQcon   = /* Brunt-Vaisala squared (=N^2) [s^-2] */
(PID.TID 0000.0001)                -2.000000000000000E-05
(PID.TID 0000.0001)     ;
(PID.TID 0000.0001)  difm0     = /* max viscosity from shear instab. [m2/s] */
(PID.TID 0000.0001)                 5.000000000000000E-03
(PID.TID 0000.0001)     ;
(PID.TID 0000.0001)  difs0     = /* max diffusiv. from shear instab. [m2/s] */
(PID.TID 0000.0001)                 5.000000000000000E-03
(PID.TID 0000.0001)     ;
(PID.TID 0000.0001)  dift0     = /* max diffusiv. from shear instab. [m2/s] */
(PID.TID 0000.0001)                 5.000000000000000E-03
(PID.TID 0000.0001)     ;
(PID.TID 0000.0001)  difmcon   = /* convective viscosity [m2/s] */
(PID.TID 0000.0001)                 1.000000000000000E-01
(PID.TID 0000.0001)     ;
(PID.TID 0000.0001)  difscon   = /* convective diffusiv. [m2/s] */
(PID.TID 0000.0001)                 1.000000000000000E-01
(PID.TID 0000.0001)     ;
(PID.TID 0000.0001)  diftcon   = /* convective diffusiv. [m2/s] */
(PID.TID 0000.0001)                 1.000000000000000E-01
(PID.TID 0000.0001)     ;
(PID.TID 0000.0001)  Rrho0     = /* double diffusion density ratio [-] */
(PID.TID 0000.0001)                 1.900000000000000E+00
(PID.TID 0000.0001)     ;
(PID.TID 0000.0001)  dsfmax    = /* max diffusiv. for salt fingering [m2/s] */
(PID.TID 0000.0001)                 1.000000000000000E-02
(PID.TID 0000.0001)     ;
(PID.TID 0000.0001)  cstar     = /* coeff for non-locak transport [-] */
(PID.TID 0000.0001)                 1.000000000000000E+01
(PID.TID 0000.0001)     ;
(PID.TID 0000.0001) KPPwriteState = /* write KPP fields to file */
(PID.TID 0000.0001)                   F
(PID.TID 0000.0001)     ;
(PID.TID 0000.0001)  kpp_dumpFreq = /* dump freq of KPP output */
(PID.TID 0000.0001)                 0.000000000000000E+00
(PID.TID 0000.0001)     ;
(PID.TID 0000.0001)  kpp_taveFreq = /* time-averaging freq of KPP output */
(PID.TID 0000.0001)                 0.000000000000000E+00
(PID.TID 0000.0001)     ;
(PID.TID 0000.0001) 
(PID.TID 0000.0001) EXF_CHECK: #define ALLOW_EXF
(PID.TID 0000.0001) PTRACERS_CHECK: #define ALLOW_PTRACERS
(PID.TID 0000.0001) // ===================================
(PID.TID 0000.0001) // PTRACERS parameters
(PID.TID 0000.0001) // ===================================
(PID.TID 0000.0001) PTRACERS_numInUse = /* number of tracers */
(PID.TID 0000.0001)                       2
(PID.TID 0000.0001)     ;
(PID.TID 0000.0001) PTRACERS_Iter0 = /* timestep number when tracers are initialized */
(PID.TID 0000.0001)                15811200
(PID.TID 0000.0001)     ;
(PID.TID 0000.0001) PTRACERS_startAllTrc =/* all tracers start @ startTime */
(PID.TID 0000.0001)                   T
(PID.TID 0000.0001)     ;
(PID.TID 0000.0001) PTRACERS_doAB_onGpTr =/* apply AB on Tendencies (rather than on Tracers) */
(PID.TID 0000.0001)                   T
(PID.TID 0000.0001)     ;
(PID.TID 0000.0001) PTRACERS_addSrelax2EmP =/* add Salt relaxation to EmP */
(PID.TID 0000.0001)                   F
(PID.TID 0000.0001)     ;
(PID.TID 0000.0001) PTRACERS_dTLev =   /* Ptracer timestep ( s ) */
(PID.TID 0000.0001)   100 @  8.000000000000000E+01              /* K =  1:100 */
(PID.TID 0000.0001)     ;
(PID.TID 0000.0001) PTRACERS_monitorFreq = /* Frequency^-1 for monitor output (s) */
(PID.TID 0000.0001)                 3.600000000000000E+03
(PID.TID 0000.0001)     ;
(PID.TID 0000.0001) PTRACERS_dumpFreq = /* Frequency^-1 for snapshot output (s) */
(PID.TID 0000.0001)                 0.000000000000000E+00
(PID.TID 0000.0001)     ;
(PID.TID 0000.0001) PTRACERS_taveFreq = /* Frequency^-1 for time-Aver. output (s) */
(PID.TID 0000.0001)                 0.000000000000000E+00
(PID.TID 0000.0001)     ;
(PID.TID 0000.0001) PTRACERS_useRecords = /* all tracers in 1 file */
(PID.TID 0000.0001)                   F
(PID.TID 0000.0001)     ;
(PID.TID 0000.0001) PTRACERS_timeave_mnc = /* use MNC for Tave output */
(PID.TID 0000.0001)                   F
(PID.TID 0000.0001)     ;
(PID.TID 0000.0001) PTRACERS_snapshot_mnc = /* use MNC for snapshot output */
(PID.TID 0000.0001)                   F
(PID.TID 0000.0001)     ;
(PID.TID 0000.0001) PTRACERS_pickup_write_mnc = /* use MNC for writing pickups */
(PID.TID 0000.0001)                   F
(PID.TID 0000.0001)     ;
(PID.TID 0000.0001) PTRACERS_pickup_read_mnc = /* use MNC for reading pickups */
(PID.TID 0000.0001)                   F
(PID.TID 0000.0001)     ;
(PID.TID 0000.0001)  -----------------------------------
(PID.TID 0000.0001)  tracer number :    1
(PID.TID 0000.0001) PTRACERS_names = /* Tracer short name */
(PID.TID 0000.0001)               'TRAC01'
(PID.TID 0000.0001)     ;
(PID.TID 0000.0001) PTRACERS_long_names = /* Tracer long name */
(PID.TID 0000.0001)               ''
(PID.TID 0000.0001)     ;
(PID.TID 0000.0001) PTRACERS_ioLabel = /* tracer IO Label */
(PID.TID 0000.0001)               '01'
(PID.TID 0000.0001)     ;
(PID.TID 0000.0001) PTRACERS_advScheme = /* Advection Scheme */
(PID.TID 0000.0001)                       7
(PID.TID 0000.0001)     ;
(PID.TID 0000.0001) PTRACERS_SOM_Advection = /* tracer uses SOM advection scheme */
(PID.TID 0000.0001)                   F
(PID.TID 0000.0001)     ;
(PID.TID 0000.0001) PTRACERS_ImplVertAdv = /* implicit vert. advection flag */
(PID.TID 0000.0001)                   F
(PID.TID 0000.0001)     ;
(PID.TID 0000.0001) PTRACERS_MultiDimAdv = /* tracer uses Multi-Dim advection */
(PID.TID 0000.0001)                   T
(PID.TID 0000.0001)     ;
(PID.TID 0000.0001) PTRACERS_AdamsBashGtr = /* apply AB on tracer tendency */
(PID.TID 0000.0001)                   F
(PID.TID 0000.0001)     ;
(PID.TID 0000.0001) PTRACERS_AdamsBash_Tr = /* apply AB on passive tracer */
(PID.TID 0000.0001)                   F
(PID.TID 0000.0001)     ;
(PID.TID 0000.0001) PTRACERS_diffKh = /* Laplacian Diffusivity */
(PID.TID 0000.0001)                 0.000000000000000E+00
(PID.TID 0000.0001)     ;
(PID.TID 0000.0001) PTRACERS_diffK4 = /* Biharmonic Diffusivity */
(PID.TID 0000.0001)                 0.000000000000000E+00
(PID.TID 0000.0001)     ;
(PID.TID 0000.0001) PTRACERS_diffKrNr = /* Vertical Diffusivity */
(PID.TID 0000.0001)   100 @  1.000000000000000E-05              /* K =  1:100 */
(PID.TID 0000.0001)     ;
(PID.TID 0000.0001) PTRACERS_useGMRedi = /* apply GM-Redi */
(PID.TID 0000.0001)                   F
(PID.TID 0000.0001)     ;
(PID.TID 0000.0001) PTRACERS_useDWNSLP = /* apply DOWN-SLOPE Flow */
(PID.TID 0000.0001)                   F
(PID.TID 0000.0001)     ;
(PID.TID 0000.0001) PTRACERS_useKPP = /* apply KPP scheme */
(PID.TID 0000.0001)                   T
(PID.TID 0000.0001)     ;
(PID.TID 0000.0001) PTRACERS_ref = /* Reference vertical profile */
(PID.TID 0000.0001)   100 @  0.000000000000000E+00              /* K =  1:100 */
(PID.TID 0000.0001)     ;
(PID.TID 0000.0001) PTRACERS_EvPrRn =/* tracer conc. in Evap. & Rain */
(PID.TID 0000.0001)                 1.234567000000000E+05
(PID.TID 0000.0001)     ;
(PID.TID 0000.0001)  -----------------------------------
(PID.TID 0000.0001)  tracer number :    2
(PID.TID 0000.0001) PTRACERS_names = /* Tracer short name */
(PID.TID 0000.0001)               'TRAC02'
(PID.TID 0000.0001)     ;
(PID.TID 0000.0001) PTRACERS_long_names = /* Tracer long name */
(PID.TID 0000.0001)               ''
(PID.TID 0000.0001)     ;
(PID.TID 0000.0001) PTRACERS_ioLabel = /* tracer IO Label */
(PID.TID 0000.0001)               '02'
(PID.TID 0000.0001)     ;
(PID.TID 0000.0001) PTRACERS_advScheme = /* Advection Scheme */
(PID.TID 0000.0001)                       7
(PID.TID 0000.0001)     ;
(PID.TID 0000.0001) PTRACERS_SOM_Advection = /* tracer uses SOM advection scheme */
(PID.TID 0000.0001)                   F
(PID.TID 0000.0001)     ;
(PID.TID 0000.0001) PTRACERS_ImplVertAdv = /* implicit vert. advection flag */
(PID.TID 0000.0001)                   F
(PID.TID 0000.0001)     ;
(PID.TID 0000.0001) PTRACERS_MultiDimAdv = /* tracer uses Multi-Dim advection */
(PID.TID 0000.0001)                   T
(PID.TID 0000.0001)     ;
(PID.TID 0000.0001) PTRACERS_AdamsBashGtr = /* apply AB on tracer tendency */
(PID.TID 0000.0001)                   F
(PID.TID 0000.0001)     ;
(PID.TID 0000.0001) PTRACERS_AdamsBash_Tr = /* apply AB on passive tracer */
(PID.TID 0000.0001)                   F
(PID.TID 0000.0001)     ;
(PID.TID 0000.0001) PTRACERS_diffKh = /* Laplacian Diffusivity */
(PID.TID 0000.0001)                 0.000000000000000E+00
(PID.TID 0000.0001)     ;
(PID.TID 0000.0001) PTRACERS_diffK4 = /* Biharmonic Diffusivity */
(PID.TID 0000.0001)                 0.000000000000000E+00
(PID.TID 0000.0001)     ;
(PID.TID 0000.0001) PTRACERS_diffKrNr = /* Vertical Diffusivity */
(PID.TID 0000.0001)   100 @  1.000000000000000E-05              /* K =  1:100 */
(PID.TID 0000.0001)     ;
(PID.TID 0000.0001) PTRACERS_useGMRedi = /* apply GM-Redi */
(PID.TID 0000.0001)                   F
(PID.TID 0000.0001)     ;
(PID.TID 0000.0001) PTRACERS_useDWNSLP = /* apply DOWN-SLOPE Flow */
(PID.TID 0000.0001)                   F
(PID.TID 0000.0001)     ;
(PID.TID 0000.0001) PTRACERS_useKPP = /* apply KPP scheme */
(PID.TID 0000.0001)                   T
(PID.TID 0000.0001)     ;
(PID.TID 0000.0001) PTRACERS_ref = /* Reference vertical profile */
(PID.TID 0000.0001)   100 @  0.000000000000000E+00              /* K =  1:100 */
(PID.TID 0000.0001)     ;
(PID.TID 0000.0001) PTRACERS_EvPrRn =/* tracer conc. in Evap. & Rain */
(PID.TID 0000.0001)                 1.234567000000000E+05
(PID.TID 0000.0001)     ;
(PID.TID 0000.0001)  -----------------------------------
(PID.TID 0000.0001) GAD_CHECK: #define ALLOW_GENERIC_ADVDIFF
(PID.TID 0000.0001) // =======================================================
(PID.TID 0000.0001) // Check Model config. (CONFIG_CHECK):
(PID.TID 0000.0001) // CONFIG_CHECK : Normal End
(PID.TID 0000.0001) // =======================================================
(PID.TID 0000.0001) 
(PID.TID 0000.0001)  nRecords = 603 ; filePrec =  64 ; fileIter =  15811200
(PID.TID 0000.0001)     nDims =   2 , dims:
(PID.TID 0000.0001)    1:2960   12960
(PID.TID 0000.0001)    2: 800   1 800
(PID.TID 0000.0001)     nFlds =   9 , nFl3D =   6 , fields:
(PID.TID 0000.0001)  >Uvel    < >Vvel    < >Theta   < >Salt    < >GuNm1   < >GvNm1   < >EtaN    < >dEtaHdt < >EtaH    <
(PID.TID 0000.0001) missingVal=  1.00000000000000E+00 ; nTimRec =   1 , timeList:
(PID.TID 0000.0001)   1.264896000000E+09
(PID.TID 0000.0001) READ_MFLDS_3D_RL: read field: "Uvel    ", #   1 in fldList, rec=   1
(PID.TID 0000.0001) READ_MFLDS_3D_RL: read field: "Vvel    ", #   2 in fldList, rec=   2
(PID.TID 0000.0001) READ_MFLDS_3D_RL: read field: "Theta   ", #   3 in fldList, rec=   3
(PID.TID 0000.0001) READ_MFLDS_3D_RL: read field: "Salt    ", #   4 in fldList, rec=   4
(PID.TID 0000.0001) READ_MFLDS_3D_RL: read field: "GuNm1   ", #   5 in fldList, rec=   5
(PID.TID 0000.0001) READ_MFLDS_3D_RL: read field: "GvNm1   ", #   6 in fldList, rec=   6
(PID.TID 0000.0001) READ_MFLDS_3D_RL: read field: "EtaN    ", #   7 in fldList, rec= 601
(PID.TID 0000.0001) READ_MFLDS_3D_RL: read field: "dEtaHdt ", #   8 in fldList, rec= 602
(PID.TID 0000.0001) READ_MFLDS_CHECK: - normal end ; reset MFLDS file-name: pickup.0015811200
(PID.TID 0000.0001) // =======================================================
(PID.TID 0000.0001) // Model current state
(PID.TID 0000.0001) // =======================================================
(PID.TID 0000.0001) 
(PID.TID 0000.0001) // =======================================================
(PID.TID 0000.0001) // Begin MONITOR dynamic field statistics
(PID.TID 0000.0001) // =======================================================
(PID.TID 0000.0001) %MON time_tsnumber                =              15811200
(PID.TID 0000.0001) %MON time_secondsf                =   1.2648960000000E+09
(PID.TID 0000.0001) %MON dynstat_eta_max              =   1.5536232478418E+00
(PID.TID 0000.0001) %MON dynstat_eta_min              =  -1.0125618809779E+00
(PID.TID 0000.0001) %MON dynstat_eta_mean             =   3.9061877357823E-01
(PID.TID 0000.0001) %MON dynstat_eta_sd               =   2.6643013241562E-01
(PID.TID 0000.0001) %MON dynstat_eta_del2             =   1.1040098006633E-06
(PID.TID 0000.0001) %MON dynstat_uvel_max             =   2.8450604035160E+00
(PID.TID 0000.0001) %MON dynstat_uvel_min             =  -2.6623423836820E+00
(PID.TID 0000.0001) %MON dynstat_uvel_mean            =   1.5880245456542E-02
(PID.TID 0000.0001) %MON dynstat_uvel_sd              =   9.4203642083723E-02
(PID.TID 0000.0001) %MON dynstat_uvel_del2            =   1.9253780050825E-06
(PID.TID 0000.0001) %MON dynstat_vvel_max             =   2.8754972961125E+00
(PID.TID 0000.0001) %MON dynstat_vvel_min             =  -2.9055987830535E+00
(PID.TID 0000.0001) %MON dynstat_vvel_mean            =   1.4079989239403E-02
(PID.TID 0000.0001) %MON dynstat_vvel_sd              =   8.5363794282587E-02
(PID.TID 0000.0001) %MON dynstat_vvel_del2            =   1.8139048190343E-06
(PID.TID 0000.0001) %MON dynstat_wvel_max             =   4.3244817319874E-02
(PID.TID 0000.0001) %MON dynstat_wvel_min             =  -3.1969094862328E-02
(PID.TID 0000.0001) %MON dynstat_wvel_mean            =   2.3100454474683E-05
(PID.TID 0000.0001) %MON dynstat_wvel_sd              =   1.6386575452060E-03
(PID.TID 0000.0001) %MON dynstat_wvel_del2            =   9.6411137096772E-08
(PID.TID 0000.0001) %MON dynstat_theta_max            =   2.4970343607539E+01
(PID.TID 0000.0001) %MON dynstat_theta_min            =  -2.4979588203130E+00
(PID.TID 0000.0001) %MON dynstat_theta_mean           =   5.5821369959427E+00
(PID.TID 0000.0001) %MON dynstat_theta_sd             =   4.6761435666433E+00
(PID.TID 0000.0001) %MON dynstat_theta_del2           =   7.4433077205564E-06
(PID.TID 0000.0001) %MON dynstat_salt_max             =   8.9685366198189E+01
(PID.TID 0000.0001) %MON dynstat_salt_min             =   2.0151537700997E+00
(PID.TID 0000.0001) %MON dynstat_salt_mean            =   3.5191269759802E+01
(PID.TID 0000.0001) %MON dynstat_salt_sd              =   4.5267688892179E-01
(PID.TID 0000.0001) %MON dynstat_salt_del2            =   1.4898873019280E-06
(PID.TID 0000.0001) %MON dynstat_sst_max              =   2.4954070260738E+01
(PID.TID 0000.0001) %MON dynstat_sst_min              =  -2.4979588203130E+00
(PID.TID 0000.0001) %MON dynstat_sst_mean             =   1.7744046149864E+01
(PID.TID 0000.0001) %MON dynstat_sst_sd               =   3.4099180361503E+00
(PID.TID 0000.0001) %MON dynstat_sst_del2             =   9.9385603798831E-05
(PID.TID 0000.0001) %MON dynstat_sss_max              =   8.9683610370099E+01
(PID.TID 0000.0001) %MON dynstat_sss_min              =   2.0151537700997E+00
(PID.TID 0000.0001) %MON dynstat_sss_mean             =   3.6426108314891E+01
(PID.TID 0000.0001) %MON dynstat_sss_sd               =   4.5319837221605E-01
(PID.TID 0000.0001) %MON dynstat_sss_del2             =   1.9510048954418E-05
(PID.TID 0000.0001) %MON forcing_qnet_max             =   0.0000000000000E+00
(PID.TID 0000.0001) %MON forcing_qnet_min             =   0.0000000000000E+00
(PID.TID 0000.0001) %MON forcing_qnet_mean            =   0.0000000000000E+00
(PID.TID 0000.0001) %MON forcing_qnet_sd              =   0.0000000000000E+00
(PID.TID 0000.0001) %MON forcing_qnet_del2            =   0.0000000000000E+00
(PID.TID 0000.0001) %MON forcing_qsw_max              =   0.0000000000000E+00
(PID.TID 0000.0001) %MON forcing_qsw_min              =   0.0000000000000E+00
(PID.TID 0000.0001) %MON forcing_qsw_mean             =   0.0000000000000E+00
(PID.TID 0000.0001) %MON forcing_qsw_sd               =   0.0000000000000E+00
(PID.TID 0000.0001) %MON forcing_qsw_del2             =   0.0000000000000E+00
(PID.TID 0000.0001) %MON forcing_empmr_max            =   0.0000000000000E+00
(PID.TID 0000.0001) %MON forcing_empmr_min            =   0.0000000000000E+00
(PID.TID 0000.0001) %MON forcing_empmr_mean           =   0.0000000000000E+00
(PID.TID 0000.0001) %MON forcing_empmr_sd             =   0.0000000000000E+00
(PID.TID 0000.0001) %MON forcing_empmr_del2           =   0.0000000000000E+00
(PID.TID 0000.0001) %MON forcing_fu_max               =   0.0000000000000E+00
(PID.TID 0000.0001) %MON forcing_fu_min               =   0.0000000000000E+00
(PID.TID 0000.0001) %MON forcing_fu_mean              =   0.0000000000000E+00
(PID.TID 0000.0001) %MON forcing_fu_sd                =   0.0000000000000E+00
(PID.TID 0000.0001) %MON forcing_fu_del2              =   0.0000000000000E+00
(PID.TID 0000.0001) %MON forcing_fv_max               =   0.0000000000000E+00
(PID.TID 0000.0001) %MON forcing_fv_min               =   0.0000000000000E+00
(PID.TID 0000.0001) %MON forcing_fv_mean              =   0.0000000000000E+00
(PID.TID 0000.0001) %MON forcing_fv_sd                =   0.0000000000000E+00
(PID.TID 0000.0001) %MON forcing_fv_del2              =   0.0000000000000E+00
(PID.TID 0000.0001) %MON trAdv_CFL_u_max              =   0.0000000000000E+00
(PID.TID 0000.0001) %MON trAdv_CFL_v_max              =   0.0000000000000E+00
(PID.TID 0000.0001) %MON trAdv_CFL_w_max              =   0.0000000000000E+00
(PID.TID 0000.0001) %MON advcfl_uvel_max              =   9.6426970313072E-02
(PID.TID 0000.0001) %MON advcfl_vvel_max              =   1.0035755437251E-01
(PID.TID 0000.0001) %MON advcfl_wvel_max              =   3.2243121680598E-01
(PID.TID 0000.0001) %MON advcfl_W_hf_max              =   3.2779390988652E-01
(PID.TID 0000.0001) %MON pe_b_mean                    =   2.7033810326938E-04
(PID.TID 0000.0001) %MON ke_max                       =   4.5585648941252E+00
(PID.TID 0000.0001) %MON ke_mean                      =   8.2610125884168E-03
(PID.TID 0000.0001) %MON ke_vol                       =   4.6123795034297E+16
(PID.TID 0000.0001) %MON vort_r_min                   =  -1.6359628653141E-03
(PID.TID 0000.0001) %MON vort_r_max                   =   1.9130531540965E-03
(PID.TID 0000.0001) %MON vort_a_mean                  =   8.2145905758173E-05
(PID.TID 0000.0001) %MON vort_a_sd                    =   1.4093909726949E-05
(PID.TID 0000.0001) %MON vort_p_mean                  =   8.4437936593569E-05
(PID.TID 0000.0001) %MON vort_p_sd                    =   3.4133871009823E-05
(PID.TID 0000.0001) %MON surfExpan_theta_mean         =   6.1099666659634E-04
(PID.TID 0000.0001) %MON surfExpan_salt_mean          =   1.3885602584249E-03
(PID.TID 0000.0001) // =======================================================
(PID.TID 0000.0001) // End MONITOR dynamic field statistics
(PID.TID 0000.0001) // =======================================================
(PID.TID 0000.0001) // =======================================================
(PID.TID 0000.0001) // Begin OBCS MONITOR field statistics
(PID.TID 0000.0001) // =======================================================
(PID.TID 0000.0001) %MON obc_E_uVel_max               =  -1.8313524142732E-01
(PID.TID 0000.0001) %MON obc_E_uVel_min               =  -5.1334887805292E-01
(PID.TID 0000.0001) %MON obc_E_uVel_mean              =  -2.9083512453096E-01
(PID.TID 0000.0001) %MON obc_E_uVel_sd                =   6.8497105663111E-02
(PID.TID 0000.0001) %MON obc_E_uVel_Int               =  -1.9847900350157E+06
(PID.TID 0000.0001) %MON obc_N_vVel_max               =   5.9718494615416E-01
(PID.TID 0000.0001) %MON obc_N_vVel_min               =  -3.8693072242986E-01
(PID.TID 0000.0001) %MON obc_N_vVel_mean              =   7.5192132493300E-03
(PID.TID 0000.0001) %MON obc_N_vVel_sd                =   3.8270283805377E-02
(PID.TID 0000.0001) %MON obc_N_vVel_Int               =   1.0729650152278E+08
(PID.TID 0000.0001) %MON obc_S_vVel_max               =   1.2428156690499E+00
(PID.TID 0000.0001) %MON obc_S_vVel_min               =  -1.5706652633847E-01
(PID.TID 0000.0001) %MON obc_S_vVel_mean              =   1.7747486822987E-02
(PID.TID 0000.0001) %MON obc_S_vVel_sd                =   2.8654371361310E-02
(PID.TID 0000.0001) %MON obc_S_vVel_Int               =   5.3966272248237E+08
(PID.TID 0000.0001) %MON obc_E_theta_max              =   1.5981519699097E+01
(PID.TID 0000.0001) %MON obc_E_theta_min              =   1.3104037284851E+01
(PID.TID 0000.0001) %MON obc_E_theta_mean             =   1.4974089986960E+01
(PID.TID 0000.0001) %MON obc_E_theta_sd               =   6.0075505804650E-01
(PID.TID 0000.0001) %MON obc_N_theta_max              =   1.5721092224121E+01
(PID.TID 0000.0001) %MON obc_N_theta_min              =   9.7373789548874E-01
(PID.TID 0000.0001) %MON obc_N_theta_mean             =   5.3443110148828E+00
(PID.TID 0000.0001) %MON obc_N_theta_sd               =   3.5834807335781E+00
(PID.TID 0000.0001) %MON obc_S_theta_max              =   2.4979528427124E+01
(PID.TID 0000.0001) %MON obc_S_theta_min              =   1.5124862194061E+00
(PID.TID 0000.0001) %MON obc_S_theta_mean             =   5.4273114502690E+00
(PID.TID 0000.0001) %MON obc_S_theta_sd               =   5.1694562801555E+00
(PID.TID 0000.0001) %MON obc_E_salt_max               =   3.8703720092773E+01
(PID.TID 0000.0001) %MON obc_E_salt_min               =   3.6289142608643E+01
(PID.TID 0000.0001) %MON obc_E_salt_mean              =   3.6643778075730E+01
(PID.TID 0000.0001) %MON obc_E_salt_sd                =   5.5037722650442E-01
(PID.TID 0000.0001) %MON obc_N_salt_max               =   3.6066974639893E+01
(PID.TID 0000.0001) %MON obc_N_salt_min               =   3.2878395080566E+01
(PID.TID 0000.0001) %MON obc_N_salt_mean              =   3.5117165924185E+01
(PID.TID 0000.0001) %MON obc_N_salt_sd                =   3.1541903364831E-01
(PID.TID 0000.0001) %MON obc_S_salt_max               =   3.7600940704346E+01
(PID.TID 0000.0001) %MON obc_S_salt_min               =   3.4853485107422E+01
(PID.TID 0000.0001) %MON obc_S_salt_mean              =   3.5185630803177E+01
(PID.TID 0000.0001) %MON obc_S_salt_sd                =   4.9502018312198E-01
(PID.TID 0000.0001) // =======================================================
(PID.TID 0000.0001) // End OBCS MONITOR field statistics
(PID.TID 0000.0001) // =======================================================
(PID.TID 0000.0001) // =======================================================
(PID.TID 0000.0001) // Begin MONITOR ptracer field statistics
(PID.TID 0000.0001) // =======================================================
(PID.TID 0000.0001) %MON trcstat_ptracer01_max        =   0.0000000000000E+00
(PID.TID 0000.0001) %MON trcstat_ptracer01_min        =   0.0000000000000E+00
(PID.TID 0000.0001) %MON trcstat_ptracer01_mean       =   0.0000000000000E+00
(PID.TID 0000.0001) %MON trcstat_ptracer01_sd         =   0.0000000000000E+00
(PID.TID 0000.0001) %MON trcstat_ptracer01_del2       =   0.0000000000000E+00
(PID.TID 0000.0001) %MON trcstat_ptracer02_max        =   0.0000000000000E+00
(PID.TID 0000.0001) %MON trcstat_ptracer02_min        =   0.0000000000000E+00
(PID.TID 0000.0001) %MON trcstat_ptracer02_mean       =   0.0000000000000E+00
(PID.TID 0000.0001) %MON trcstat_ptracer02_sd         =   0.0000000000000E+00
(PID.TID 0000.0001) %MON trcstat_ptracer02_del2       =   0.0000000000000E+00
(PID.TID 0000.0001) // =======================================================
(PID.TID 0000.0001) // End MONITOR ptracer field statistics
(PID.TID 0000.0001) // =======================================================
(PID.TID 0000.0001) // =======================================================
(PID.TID 0000.0001) // Begin MONITOR EXF statistics
(PID.TID 0000.0001) // =======================================================
(PID.TID 0000.0001) %MON exf_tsnumber                 =              15811200
(PID.TID 0000.0001) %MON exf_time_sec                 =   1.2648960000000E+09
(PID.TID 0000.0001) %MON exf_ustress_max              =   9.1314772855073E-01
(PID.TID 0000.0001) %MON exf_ustress_min              =  -1.5462837149800E-01
(PID.TID 0000.0001) %MON exf_ustress_mean             =   1.0860860010888E-01
(PID.TID 0000.0001) %MON exf_ustress_sd               =   1.4781812429446E-01
(PID.TID 0000.0001) %MON exf_ustress_del2             =   9.5661398777291E-07
(PID.TID 0000.0001) %MON exf_vstress_max              =   5.2294162096489E-01
(PID.TID 0000.0001) %MON exf_vstress_min              =  -2.4751886175074E-01
(PID.TID 0000.0001) %MON exf_vstress_mean             =   2.5115280931549E-02
(PID.TID 0000.0001) %MON exf_vstress_sd               =   9.7465482455066E-02
(PID.TID 0000.0001) %MON exf_vstress_del2             =   6.8986477668585E-07
(PID.TID 0000.0001) %MON exf_hflux_max                =   1.0066809952754E+03
(PID.TID 0000.0001) %MON exf_hflux_min                =  -6.2286026334595E+01
(PID.TID 0000.0001) %MON exf_hflux_mean               =   2.1887079781417E+02
(PID.TID 0000.0001) %MON exf_hflux_sd                 =   1.2780063232186E+02
(PID.TID 0000.0001) %MON exf_hflux_del2               =   7.7574018664645E-02
(PID.TID 0000.0001) %MON exf_sflux_max                =   2.5557278154819E-07
(PID.TID 0000.0001) %MON exf_sflux_min                =  -1.0938384173363E-06
(PID.TID 0000.0001) %MON exf_sflux_mean               =  -2.7333915385185E-09
(PID.TID 0000.0001) %MON exf_sflux_sd                 =   1.3747762058722E-07
(PID.TID 0000.0001) %MON exf_sflux_del2               =   4.2693543358436E-11
(PID.TID 0000.0001) %MON exf_uwind_max                =   2.0244067617251E+01
(PID.TID 0000.0001) %MON exf_uwind_min                =  -7.9026247755590E+00
(PID.TID 0000.0001) %MON exf_uwind_mean               =   5.2963763472287E+00
(PID.TID 0000.0001) %MON exf_uwind_sd                 =   5.7886202540372E+00
(PID.TID 0000.0001) %MON exf_uwind_del2               =   2.4377697895176E-03
(PID.TID 0000.0001) %MON exf_vwind_max                =   1.5748668482222E+01
(PID.TID 0000.0001) %MON exf_vwind_min                =  -1.1154477849846E+01
(PID.TID 0000.0001) %MON exf_vwind_mean               =   9.1469270321720E-01
(PID.TID 0000.0001) %MON exf_vwind_sd                 =   5.5031689249273E+00
(PID.TID 0000.0001) %MON exf_vwind_del2               =   1.7035100730846E-03
(PID.TID 0000.0001) %MON exf_wspeed_max               =   2.0256178714975E+01
(PID.TID 0000.0001) %MON exf_wspeed_min               =   9.4011745479345E-04
(PID.TID 0000.0001) %MON exf_wspeed_mean              =   8.7462274073952E+00
(PID.TID 0000.0001) %MON exf_wspeed_sd                =   4.0230292010708E+00
(PID.TID 0000.0001) %MON exf_wspeed_del2              =   2.9737437811608E-03
(PID.TID 0000.0001) %MON exf_atemp_max                =   2.9690905647067E+02
(PID.TID 0000.0001) %MON exf_atemp_min                =   2.7283317130269E+02
(PID.TID 0000.0001) %MON exf_atemp_mean               =   2.8928128879130E+02
(PID.TID 0000.0001) %MON exf_atemp_sd                 =   4.6789603328957E+00
(PID.TID 0000.0001) %MON exf_atemp_del2               =   5.0868438494946E-03
(PID.TID 0000.0001) %MON exf_aqh_max                  =   1.5316759717105E-02
(PID.TID 0000.0001) %MON exf_aqh_min                  =   1.9094195387847E-03
(PID.TID 0000.0001) %MON exf_aqh_mean                 =   8.5650633812570E-03
(PID.TID 0000.0001) %MON exf_aqh_sd                   =   3.1232861207652E-03
(PID.TID 0000.0001) %MON exf_aqh_del2                 =   2.7669442031554E-06
(PID.TID 0000.0001) %MON exf_lwflux_max               =   1.6455268114401E+02
(PID.TID 0000.0001) %MON exf_lwflux_min               =  -2.4462783627342E+00
(PID.TID 0000.0001) %MON exf_lwflux_mean              =   6.2468023272071E+01
(PID.TID 0000.0001) %MON exf_lwflux_sd                =   2.6526169486877E+01
(PID.TID 0000.0001) %MON exf_lwflux_del2              =   2.0655530606561E-02
(PID.TID 0000.0001) %MON exf_evap_max                 =   2.6533921146945E-07
(PID.TID 0000.0001) %MON exf_evap_min                 =  -3.0671149618440E-08
(PID.TID 0000.0001) %MON exf_evap_mean                =   5.4768562632063E-08
(PID.TID 0000.0001) %MON exf_evap_sd                  =   3.6896326721291E-08
(PID.TID 0000.0001) %MON exf_evap_del2                =   2.0211015183361E-11
(PID.TID 0000.0001) %MON exf_precip_max               =   1.1067069242339E-06
(PID.TID 0000.0001) %MON exf_precip_min               =   0.0000000000000E+00
(PID.TID 0000.0001) %MON exf_precip_mean              =   5.5894909536113E-08
(PID.TID 0000.0001) %MON exf_precip_sd                =   1.3231942970611E-07
(PID.TID 0000.0001) %MON exf_precip_del2              =   4.4685673936166E-11
(PID.TID 0000.0001) %MON exf_swflux_max               =   0.0000000000000E+00
(PID.TID 0000.0001) %MON exf_swflux_min               =   0.0000000000000E+00
(PID.TID 0000.0001) %MON exf_swflux_mean              =   0.0000000000000E+00
(PID.TID 0000.0001) %MON exf_swflux_sd                =   0.0000000000000E+00
(PID.TID 0000.0001) %MON exf_swflux_del2              =   0.0000000000000E+00
(PID.TID 0000.0001) %MON exf_swdown_max               =   0.0000000000000E+00
(PID.TID 0000.0001) %MON exf_swdown_min               =   0.0000000000000E+00
(PID.TID 0000.0001) %MON exf_swdown_mean              =   0.0000000000000E+00
(PID.TID 0000.0001) %MON exf_swdown_sd                =   0.0000000000000E+00
(PID.TID 0000.0001) %MON exf_swdown_del2              =   0.0000000000000E+00
(PID.TID 0000.0001) %MON exf_lwdown_max               =   4.1177522481047E+02
(PID.TID 0000.0001) %MON exf_lwdown_min               =   2.1221029092790E+02
(PID.TID 0000.0001) %MON exf_lwdown_mean              =   3.4192838006450E+02
(PID.TID 0000.0001) %MON exf_lwdown_sd                =   3.2764111622518E+01
(PID.TID 0000.0001) %MON exf_lwdown_del2              =   1.0488060757675E-01
(PID.TID 0000.0001) %MON exf_apressure_max            =   1.0281023842386E+05
(PID.TID 0000.0001) %MON exf_apressure_min            =   9.9133657482580E+04
(PID.TID 0000.0001) %MON exf_apressure_mean           =   1.0169881686832E+05
(PID.TID 0000.0001) %MON exf_apressure_sd             =   7.0833037823701E+02
(PID.TID 0000.0001) %MON exf_apressure_del2           =   3.1076328667204E+01
(PID.TID 0000.0001) %MON exf_runoff_max               =   4.6633690723924E-08
(PID.TID 0000.0001) %MON exf_runoff_min               =   0.0000000000000E+00
(PID.TID 0000.0001) %MON exf_runoff_mean              =   1.6070446344693E-09
(PID.TID 0000.0001) %MON exf_runoff_sd                =   5.4409705936606E-09
(PID.TID 0000.0001) %MON exf_runoff_del2              =   1.7602788524736E-12
(PID.TID 0000.0001) // =======================================================
(PID.TID 0000.0001) // End MONITOR EXF statistics
(PID.TID 0000.0001) // =======================================================
(PID.TID 0000.0001) SOLVE_FOR_PRESSURE: putPmEinXvector =    F
 cg2d: Sum(rhs),rhsMax =  -1.04158119053868E+05  2.51449548145205E-02
 cg2d: Sum(rhs),rhsMax =  -1.04946231123323E+05  2.50413114760194E-02
 cg2d: Sum(rhs),rhsMax =  -1.05723934962011E+05  2.49396521176095E-02
 cg2d: Sum(rhs),rhsMax =  -1.06491130032662E+05  2.48401125131685E-02
 cg2d: Sum(rhs),rhsMax =  -1.07247717118434E+05  2.47427597893877E-02
 cg2d: Sum(rhs),rhsMax =  -1.07993598335518E+05  2.46475966519131E-02
 cg2d: Sum(rhs),rhsMax =  -1.08728677145674E+05  2.45545658143937E-02
 cg2d: Sum(rhs),rhsMax =  -1.09452858368522E+05  2.44635579824965E-02
 cg2d: Sum(rhs),rhsMax =  -1.10166048193771E+05  2.43744141879561E-02
 cg2d: Sum(rhs),rhsMax =  -1.10868154193191E+05  2.42869305082126E-02
 cg2d: Sum(rhs),rhsMax =  -1.11559085332513E+05  2.42008676181733E-02
 cg2d: Sum(rhs),rhsMax =  -1.12238751983086E+05  2.41159567385365E-02
 cg2d: Sum(rhs),rhsMax =  -1.12907065933443E+05  2.40319087877495E-02
 cg2d: Sum(rhs),rhsMax =  -1.13563940400636E+05  2.39484277355406E-02
 cg2d: Sum(rhs),rhsMax =  -1.14209290041462E+05  2.38652195919262E-02
 cg2d: Sum(rhs),rhsMax =  -1.14843030963470E+05  2.37820047848587E-02
 cg2d: Sum(rhs),rhsMax =  -1.15465080735843E+05  2.36985244704254E-02
 cg2d: Sum(rhs),rhsMax =  -1.16075358400069E+05  2.36145468091676E-02
 cg2d: Sum(rhs),rhsMax =  -1.16673784480480E+05  2.35298740523405E-02
 cg2d: Sum(rhs),rhsMax =  -1.17260280994575E+05  2.34443401615990E-02
 cg2d: Sum(rhs),rhsMax =  -1.17834771463214E+05  2.33578054230508E-02
 cg2d: Sum(rhs),rhsMax =  -1.18397180920585E+05  2.32701500867784E-02
 cg2d: Sum(rhs),rhsMax =  -1.18947435924048E+05  2.31812611754142E-02
 cg2d: Sum(rhs),rhsMax =  -1.19485464563751E+05  2.30910208804008E-02
 cg2d: Sum(rhs),rhsMax =  -1.20011196472108E+05  2.29992893601347E-02
 cg2d: Sum(rhs),rhsMax =  -1.20524562833058E+05  2.29058895592845E-02
 cg2d: Sum(rhs),rhsMax =  -1.21025496391178E+05  2.28105958481466E-02
 cg2d: Sum(rhs),rhsMax =  -1.21513931460582E+05  2.27131202961159E-02
 cg2d: Sum(rhs),rhsMax =  -1.21989803933656E+05  2.26131054921824E-02
 cg2d: Sum(rhs),rhsMax =  -1.22453051289596E+05  2.25101177978583E-02
 cg2d: Sum(rhs),rhsMax =  -1.22903612602772E+05  2.24036504076612E-02
 cg2d: Sum(rhs),rhsMax =  -1.23341428550880E+05  2.22931280339054E-02
 cg2d: Sum(rhs),rhsMax =  -1.23766441422939E+05  2.21779189153220E-02
 cg2d: Sum(rhs),rhsMax =  -1.24178595127062E+05  2.20573545209155E-02
 cg2d: Sum(rhs),rhsMax =  -1.24577835198064E+05  2.19307481085984E-02
 cg2d: Sum(rhs),rhsMax =  -1.24964108804867E+05  2.17974186210997E-02
 cg2d: Sum(rhs),rhsMax =  -1.25337364757704E+05  2.16567106064406E-02
 cg2d: Sum(rhs),rhsMax =  -1.25697553515143E+05  2.15080193534064E-02
 cg2d: Sum(rhs),rhsMax =  -1.26044627190905E+05  2.13508113790052E-02
 cg2d: Sum(rhs),rhsMax =  -1.26378539560496E+05  2.11846417813202E-02
 cg2d: Sum(rhs),rhsMax =  -1.26699246067623E+05  2.10091713847687E-02
 cg2d: Sum(rhs),rhsMax =  -1.27006703830440E+05  2.08241735689088E-02
 cg2d: Sum(rhs),rhsMax =  -1.27300871647564E+05  2.06295359644833E-02
 cg2d: Sum(rhs),rhsMax =  -1.27581710003916E+05  2.04252526206449E-02
 cg2d: Sum(rhs),rhsMax =  -1.27849181076342E+05  2.02114152805034E-02
(PID.TID 0000.0001)      cg2d_init_res =   7.24636182246417E-01
(PID.TID 0000.0001)      cg2d_iters(min,last) =      -1     151
(PID.TID 0000.0001)      cg2d_last_res =   1.94153459420135E-11
(PID.TID 0000.0001) // =======================================================
(PID.TID 0000.0001) // Begin MONITOR dynamic field statistics
(PID.TID 0000.0001) // =======================================================
(PID.TID 0000.0001) %MON time_tsnumber                =              15811245
(PID.TID 0000.0001) %MON time_secondsf                =   1.2648996000000E+09
(PID.TID 0000.0001) %MON dynstat_eta_max              =   1.4684048226436E+00
(PID.TID 0000.0001) %MON dynstat_eta_min              =  -9.7741147329256E-01
(PID.TID 0000.0001) %MON dynstat_eta_mean             =   4.8316984304183E-01
(PID.TID 0000.0001) %MON dynstat_eta_sd               =   2.7444248163473E-01
(PID.TID 0000.0001) %MON dynstat_eta_del2             =   1.0696626021567E-06
(PID.TID 0000.0001) %MON dynstat_uvel_max             =   2.7942774628035E+00
(PID.TID 0000.0001) %MON dynstat_uvel_min             =  -2.6976278717943E+00
(PID.TID 0000.0001) %MON dynstat_uvel_mean            =   1.9249797281317E-02
(PID.TID 0000.0001) %MON dynstat_uvel_sd              =   9.4047899817672E-02
(PID.TID 0000.0001) %MON dynstat_uvel_del2            =   1.9158320892781E-06
(PID.TID 0000.0001) %MON dynstat_vvel_max             =   2.8807901714571E+00
(PID.TID 0000.0001) %MON dynstat_vvel_min             =  -2.9262731221898E+00
(PID.TID 0000.0001) %MON dynstat_vvel_mean            =   1.2003732201181E-02
(PID.TID 0000.0001) %MON dynstat_vvel_sd              =   8.5540031339916E-02
(PID.TID 0000.0001) %MON dynstat_vvel_del2            =   1.8039234697729E-06
(PID.TID 0000.0001) %MON dynstat_wvel_max             =   4.5296181470538E-02
(PID.TID 0000.0001) %MON dynstat_wvel_min             =  -3.4598273732103E-02
(PID.TID 0000.0001) %MON dynstat_wvel_mean            =   7.9618367538700E-06
(PID.TID 0000.0001) %MON dynstat_wvel_sd              =   1.6346499983385E-03
(PID.TID 0000.0001) %MON dynstat_wvel_del2            =   9.6239184887571E-08
(PID.TID 0000.0001) %MON dynstat_theta_max            =   2.4969940278931E+01
(PID.TID 0000.0001) %MON dynstat_theta_min            =  -2.5111733999626E+00
(PID.TID 0000.0001) %MON dynstat_theta_mean           =   5.5818828615233E+00
(PID.TID 0000.0001) %MON dynstat_theta_sd             =   4.6758901146896E+00
(PID.TID 0000.0001) %MON dynstat_theta_del2           =   7.4507671273894E-06
(PID.TID 0000.0001) %MON dynstat_salt_max             =   8.9684454803329E+01
(PID.TID 0000.0001) %MON dynstat_salt_min             =   2.0151575113345E+00
(PID.TID 0000.0001) %MON dynstat_salt_mean            =   3.5191245597631E+01
(PID.TID 0000.0001) %MON dynstat_salt_sd              =   4.5265004764764E-01
(PID.TID 0000.0001) %MON dynstat_salt_del2            =   1.4897506724565E-06
(PID.TID 0000.0001) %MON dynstat_sst_max              =   2.4954610655496E+01
(PID.TID 0000.0001) %MON dynstat_sst_min              =  -2.5111733999626E+00
(PID.TID 0000.0001) %MON dynstat_sst_mean             =   1.7739869928194E+01
(PID.TID 0000.0001) %MON dynstat_sst_sd               =   3.4082816568541E+00
(PID.TID 0000.0001) %MON dynstat_sst_del2             =   9.9224545243089E-05
(PID.TID 0000.0001) %MON dynstat_sss_max              =   8.9682605642446E+01
(PID.TID 0000.0001) %MON dynstat_sss_min              =   2.0151575113345E+00
(PID.TID 0000.0001) %MON dynstat_sss_mean             =   3.6426083906500E+01
(PID.TID 0000.0001) %MON dynstat_sss_sd               =   4.5306892193994E-01
(PID.TID 0000.0001) %MON dynstat_sss_del2             =   1.9465817520020E-05
(PID.TID 0000.0001) %MON forcing_qnet_max             =   1.0868736680502E+03
(PID.TID 0000.0001) %MON forcing_qnet_min             =  -1.3032101186712E+02
(PID.TID 0000.0001) %MON forcing_qnet_mean            =   2.2070508653493E+02
(PID.TID 0000.0001) %MON forcing_qnet_sd              =   1.3554682386512E+02
(PID.TID 0000.0001) %MON forcing_qnet_del2            =   4.3538816164256E-03
(PID.TID 0000.0001) %MON forcing_qsw_max              =   0.0000000000000E+00
(PID.TID 0000.0001) %MON forcing_qsw_min              =   0.0000000000000E+00
(PID.TID 0000.0001) %MON forcing_qsw_mean             =   0.0000000000000E+00
(PID.TID 0000.0001) %MON forcing_qsw_sd               =   0.0000000000000E+00
(PID.TID 0000.0001) %MON forcing_qsw_del2             =   0.0000000000000E+00
(PID.TID 0000.0001) %MON forcing_empmr_max            =   2.7277499139989E-04
(PID.TID 0000.0001) %MON forcing_empmr_min            =  -1.2922331125148E-03
(PID.TID 0000.0001) %MON forcing_empmr_mean           =  -3.6397392354444E-06
(PID.TID 0000.0001) %MON forcing_empmr_sd             =   1.4052511629081E-04
(PID.TID 0000.0001) %MON forcing_empmr_del2           =   1.3096904330024E-09
(PID.TID 0000.0001) %MON forcing_fu_max               =   9.1185150984522E-01
(PID.TID 0000.0001) %MON forcing_fu_min               =  -1.7914677881007E-01
(PID.TID 0000.0001) %MON forcing_fu_mean              =   1.1222063184597E-01
(PID.TID 0000.0001) %MON forcing_fu_sd                =   1.5205879053353E-01
(PID.TID 0000.0001) %MON forcing_fu_del2              =   8.7315228954569E-07
(PID.TID 0000.0001) %MON forcing_fv_max               =   5.5459580265331E-01
(PID.TID 0000.0001) %MON forcing_fv_min               =  -2.5395132983188E-01
(PID.TID 0000.0001) %MON forcing_fv_mean              =   2.7040397166105E-02
(PID.TID 0000.0001) %MON forcing_fv_sd                =   1.0113328871910E-01
(PID.TID 0000.0001) %MON forcing_fv_del2              =   6.3186326110203E-07
(PID.TID 0000.0001) %MON trAdv_CFL_u_max              =   9.4705796440557E-02
(PID.TID 0000.0001) %MON trAdv_CFL_v_max              =   1.0108369418282E-01
(PID.TID 0000.0001) %MON trAdv_CFL_w_max              =   3.8285524321261E-01
(PID.TID 0000.0001) %MON advcfl_uvel_max              =   9.4705795918869E-02
(PID.TID 0000.0001) %MON advcfl_vvel_max              =   1.0107163304231E-01
(PID.TID 0000.0001) %MON advcfl_wvel_max              =   3.8686229142891E-01
(PID.TID 0000.0001) %MON advcfl_W_hf_max              =   3.9189622379682E-01
(PID.TID 0000.0001) %MON pe_b_mean                    =   1.2149603391569E-02
(PID.TID 0000.0001) %MON ke_max                       =   4.5532776922401E+00
(PID.TID 0000.0001) %MON ke_mean                      =   8.2933697851054E-03
(PID.TID 0000.0001) %MON ke_vol                       =   4.6123795034297E+16
(PID.TID 0000.0001) %MON vort_r_min                   =  -1.3543239297943E-03
(PID.TID 0000.0001) %MON vort_r_max                   =   1.8521878962668E-03
(PID.TID 0000.0001) %MON vort_a_mean                  =   8.2145904194349E-05
(PID.TID 0000.0001) %MON vort_a_sd                    =   1.4097303461671E-05
(PID.TID 0000.0001) %MON vort_p_mean                  =   8.4437934986111E-05
(PID.TID 0000.0001) %MON vort_p_sd                    =   3.4146151496709E-05
(PID.TID 0000.0001) %MON surfExpan_theta_mean         =   1.6029794312759E-04
(PID.TID 0000.0001) %MON surfExpan_salt_mean          =   4.5661235937628E-04
(PID.TID 0000.0001) // =======================================================
(PID.TID 0000.0001) // End MONITOR dynamic field statistics
(PID.TID 0000.0001) // =======================================================
(PID.TID 0000.0001) // =======================================================
(PID.TID 0000.0001) // Begin OBCS MONITOR field statistics
(PID.TID 0000.0001) // =======================================================
(PID.TID 0000.0001) %MON obc_E_uVel_max               =   3.7175313522990E-02
(PID.TID 0000.0001) %MON obc_E_uVel_min               =  -2.7601305334699E-01
(PID.TID 0000.0001) %MON obc_E_uVel_mean              =  -5.8958917024899E-02
(PID.TID 0000.0001) %MON obc_E_uVel_sd                =   7.0721489058093E-02
(PID.TID 0000.0001) %MON obc_E_uVel_Int               =  -4.0236223590620E+05
(PID.TID 0000.0001) %MON obc_N_vVel_max               =   5.5999411275560E-01
(PID.TID 0000.0001) %MON obc_N_vVel_min               =  -5.0775717121960E-01
(PID.TID 0000.0001) %MON obc_N_vVel_mean              =   1.2797926328122E-02
(PID.TID 0000.0001) %MON obc_N_vVel_sd                =   3.9829575251103E-02
(PID.TID 0000.0001) %MON obc_N_vVel_Int               =   1.8262186165235E+08
(PID.TID 0000.0001) %MON obc_S_vVel_max               =   1.2503028745172E+00
(PID.TID 0000.0001) %MON obc_S_vVel_min               =  -1.6024882949989E-01
(PID.TID 0000.0001) %MON obc_S_vVel_mean              =   1.0717352871828E-02
(PID.TID 0000.0001) %MON obc_S_vVel_sd                =   2.8280877528304E-02
(PID.TID 0000.0001) %MON obc_S_vVel_Int               =   3.2589154094336E+08
(PID.TID 0000.0001) %MON obc_E_theta_max              =   1.5981519699097E+01
(PID.TID 0000.0001) %MON obc_E_theta_min              =   1.3104037284851E+01
(PID.TID 0000.0001) %MON obc_E_theta_mean             =   1.4974089986960E+01
(PID.TID 0000.0001) %MON obc_E_theta_sd               =   6.0075505804650E-01
(PID.TID 0000.0001) %MON obc_N_theta_max              =   1.5721092224121E+01
(PID.TID 0000.0001) %MON obc_N_theta_min              =   9.7373789548874E-01
(PID.TID 0000.0001) %MON obc_N_theta_mean             =   5.3443110148828E+00
(PID.TID 0000.0001) %MON obc_N_theta_sd               =   3.5834807335781E+00
(PID.TID 0000.0001) %MON obc_S_theta_max              =   2.4979528427124E+01
(PID.TID 0000.0001) %MON obc_S_theta_min              =   1.5124862194061E+00
(PID.TID 0000.0001) %MON obc_S_theta_mean             =   5.4273114502690E+00
(PID.TID 0000.0001) %MON obc_S_theta_sd               =   5.1694562801555E+00
(PID.TID 0000.0001) %MON obc_E_salt_max               =   3.8703720092773E+01
(PID.TID 0000.0001) %MON obc_E_salt_min               =   3.6289142608643E+01
(PID.TID 0000.0001) %MON obc_E_salt_mean              =   3.6643778075730E+01
(PID.TID 0000.0001) %MON obc_E_salt_sd                =   5.5037722650442E-01
(PID.TID 0000.0001) %MON obc_N_salt_max               =   3.6066974639893E+01
(PID.TID 0000.0001) %MON obc_N_salt_min               =   3.2878395080566E+01
(PID.TID 0000.0001) %MON obc_N_salt_mean              =   3.5117165924185E+01
(PID.TID 0000.0001) %MON obc_N_salt_sd                =   3.1541903364831E-01
(PID.TID 0000.0001) %MON obc_S_salt_max               =   3.7600940704346E+01
(PID.TID 0000.0001) %MON obc_S_salt_min               =   3.4853485107422E+01
(PID.TID 0000.0001) %MON obc_S_salt_mean              =   3.5185630803177E+01
(PID.TID 0000.0001) %MON obc_S_salt_sd                =   4.9502018312198E-01
(PID.TID 0000.0001) // =======================================================
(PID.TID 0000.0001) // End OBCS MONITOR field statistics
(PID.TID 0000.0001) // =======================================================
(PID.TID 0000.0001) // =======================================================
(PID.TID 0000.0001) // Begin MONITOR ptracer field statistics
(PID.TID 0000.0001) // =======================================================
(PID.TID 0000.0001) %MON trcstat_ptracer01_max        =   0.0000000000000E+00
(PID.TID 0000.0001) %MON trcstat_ptracer01_min        =   0.0000000000000E+00
(PID.TID 0000.0001) %MON trcstat_ptracer01_mean       =   0.0000000000000E+00
(PID.TID 0000.0001) %MON trcstat_ptracer01_sd         =   0.0000000000000E+00
(PID.TID 0000.0001) %MON trcstat_ptracer01_del2       =   0.0000000000000E+00
(PID.TID 0000.0001) %MON trcstat_ptracer02_max        =   0.0000000000000E+00
(PID.TID 0000.0001) %MON trcstat_ptracer02_min        =   0.0000000000000E+00
(PID.TID 0000.0001) %MON trcstat_ptracer02_mean       =   0.0000000000000E+00
(PID.TID 0000.0001) %MON trcstat_ptracer02_sd         =   0.0000000000000E+00
(PID.TID 0000.0001) %MON trcstat_ptracer02_del2       =   0.0000000000000E+00
(PID.TID 0000.0001) // =======================================================
(PID.TID 0000.0001) // End MONITOR ptracer field statistics
(PID.TID 0000.0001) // =======================================================
(PID.TID 0000.0001) // =======================================================
(PID.TID 0000.0001) // Begin MONITOR EXF statistics
(PID.TID 0000.0001) // =======================================================
(PID.TID 0000.0001) %MON exf_tsnumber                 =              15811245
(PID.TID 0000.0001) %MON exf_time_sec                 =   1.2648996000000E+09
(PID.TID 0000.0001) %MON exf_ustress_max              =   9.1417587282409E-01
(PID.TID 0000.0001) %MON exf_ustress_min              =  -1.8052660473490E-01
(PID.TID 0000.0001) %MON exf_ustress_mean             =   1.1229910233499E-01
(PID.TID 0000.0001) %MON exf_ustress_sd               =   1.5223683962710E-01
(PID.TID 0000.0001) %MON exf_ustress_del2             =   9.4816896725186E-07
(PID.TID 0000.0001) %MON exf_vstress_max              =   5.5849759535952E-01
(PID.TID 0000.0001) %MON exf_vstress_min              =  -2.5678718413563E-01
(PID.TID 0000.0001) %MON exf_vstress_mean             =   2.7099651205134E-02
(PID.TID 0000.0001) %MON exf_vstress_sd               =   1.0131122912943E-01
(PID.TID 0000.0001) %MON exf_vstress_del2             =   7.0298642551238E-07
(PID.TID 0000.0001) %MON exf_hflux_max                =   1.0623451810659E+03
(PID.TID 0000.0001) %MON exf_hflux_min                =  -1.1055604488396E+02
(PID.TID 0000.0001) %MON exf_hflux_mean               =   2.2049715871011E+02
(PID.TID 0000.0001) %MON exf_hflux_sd                 =   1.3202394309459E+02
(PID.TID 0000.0001) %MON exf_hflux_del2               =   7.8631387332277E-02
(PID.TID 0000.0001) %MON exf_sflux_max                =   2.7317928627198E-07
(PID.TID 0000.0001) %MON exf_sflux_min                =  -1.2996564707925E-06
(PID.TID 0000.0001) %MON exf_sflux_mean               =  -3.6611493326653E-09
(PID.TID 0000.0001) %MON exf_sflux_sd                 =   1.4060987170626E-07
(PID.TID 0000.0001) %MON exf_sflux_del2               =   4.3645640261870E-11
(PID.TID 0000.0001) %MON exf_uwind_max                =   2.0261127054879E+01
(PID.TID 0000.0001) %MON exf_uwind_min                =  -8.6682166504999E+00
(PID.TID 0000.0001) %MON exf_uwind_mean               =   5.3879045266802E+00
(PID.TID 0000.0001) %MON exf_uwind_sd                 =   5.8751832645779E+00
(PID.TID 0000.0001) %MON exf_uwind_del2               =   2.4768034930449E-03
(PID.TID 0000.0001) %MON exf_vwind_max                =   1.6440279427186E+01
(PID.TID 0000.0001) %MON exf_vwind_min                =  -1.1198401030867E+01
(PID.TID 0000.0001) %MON exf_vwind_mean               =   1.0061187081155E+00
(PID.TID 0000.0001) %MON exf_vwind_sd                 =   5.5359770328128E+00
(PID.TID 0000.0001) %MON exf_vwind_del2               =   1.7180763627583E-03
(PID.TID 0000.0001) %MON exf_wspeed_max               =   2.0267461984174E+01
(PID.TID 0000.0001) %MON exf_wspeed_min               =   6.3362680743004E-04
(PID.TID 0000.0001) %MON exf_wspeed_mean              =   8.8665248702566E+00
(PID.TID 0000.0001) %MON exf_wspeed_sd                =   4.0732477053048E+00
(PID.TID 0000.0001) %MON exf_wspeed_del2              =   3.0141114884284E-03
(PID.TID 0000.0001) %MON exf_atemp_max                =   2.9677628027381E+02
(PID.TID 0000.0001) %MON exf_atemp_min                =   2.7232125713973E+02
(PID.TID 0000.0001) %MON exf_atemp_mean               =   2.8926239950862E+02
(PID.TID 0000.0001) %MON exf_atemp_sd                 =   4.6668099073694E+00
(PID.TID 0000.0001) %MON exf_atemp_del2               =   5.0809698193445E-03
(PID.TID 0000.0001) %MON exf_aqh_max                  =   1.5283482525841E-02
(PID.TID 0000.0001) %MON exf_aqh_min                  =   1.9408413744891E-03
(PID.TID 0000.0001) %MON exf_aqh_mean                 =   8.5810106606672E-03
(PID.TID 0000.0001) %MON exf_aqh_sd                   =   3.1117426084014E-03
(PID.TID 0000.0001) %MON exf_aqh_del2                 =   2.7708234844212E-06
(PID.TID 0000.0001) %MON exf_lwflux_max               =   1.6509843669215E+02
(PID.TID 0000.0001) %MON exf_lwflux_min               =  -1.9220597798940E+00
(PID.TID 0000.0001) %MON exf_lwflux_mean              =   6.2392149460354E+01
(PID.TID 0000.0001) %MON exf_lwflux_sd                =   2.6764865422568E+01
(PID.TID 0000.0001) %MON exf_lwflux_del2              =   2.0653364707198E-02
(PID.TID 0000.0001) %MON exf_evap_max                 =   2.8312219393938E-07
(PID.TID 0000.0001) %MON exf_evap_min                 =  -3.0686848384665E-08
(PID.TID 0000.0001) %MON exf_evap_mean                =   5.5264151978104E-08
(PID.TID 0000.0001) %MON exf_evap_sd                  =   3.8052357913545E-08
(PID.TID 0000.0001) %MON exf_evap_del2                =   2.0533130796334E-11
(PID.TID 0000.0001) %MON exf_precip_max               =   1.3152706099891E-06
(PID.TID 0000.0001) %MON exf_precip_min               =   0.0000000000000E+00
(PID.TID 0000.0001) %MON exf_precip_mean              =   5.7318256676300E-08
(PID.TID 0000.0001) %MON exf_precip_sd                =   1.3527881233709E-07
(PID.TID 0000.0001) %MON exf_precip_del2              =   4.5690786813966E-11
(PID.TID 0000.0001) %MON exf_swflux_max               =   0.0000000000000E+00
(PID.TID 0000.0001) %MON exf_swflux_min               =   0.0000000000000E+00
(PID.TID 0000.0001) %MON exf_swflux_mean              =   0.0000000000000E+00
(PID.TID 0000.0001) %MON exf_swflux_sd                =   0.0000000000000E+00
(PID.TID 0000.0001) %MON exf_swflux_del2              =   0.0000000000000E+00
(PID.TID 0000.0001) %MON exf_swdown_max               =   0.0000000000000E+00
(PID.TID 0000.0001) %MON exf_swdown_min               =   0.0000000000000E+00
(PID.TID 0000.0001) %MON exf_swdown_mean              =   0.0000000000000E+00
(PID.TID 0000.0001) %MON exf_swdown_sd                =   0.0000000000000E+00
(PID.TID 0000.0001) %MON exf_swdown_del2              =   0.0000000000000E+00
(PID.TID 0000.0001) %MON exf_lwdown_max               =   4.1234894873436E+02
(PID.TID 0000.0001) %MON exf_lwdown_min               =   2.0579086804523E+02
(PID.TID 0000.0001) %MON exf_lwdown_mean              =   3.4198295499475E+02
(PID.TID 0000.0001) %MON exf_lwdown_sd                =   3.2764638696183E+01
(PID.TID 0000.0001) %MON exf_lwdown_del2              =   1.0490391248880E-01
(PID.TID 0000.0001) %MON exf_apressure_max            =   1.0280194737554E+05
(PID.TID 0000.0001) %MON exf_apressure_min            =   9.9126455862299E+04
(PID.TID 0000.0001) %MON exf_apressure_mean           =   1.0168211604756E+05
(PID.TID 0000.0001) %MON exf_apressure_sd             =   7.1409083391443E+02
(PID.TID 0000.0001) %MON exf_apressure_del2           =   3.1071191010181E+01
(PID.TID 0000.0001) %MON exf_runoff_max               =   4.6633690723924E-08
(PID.TID 0000.0001) %MON exf_runoff_min               =   0.0000000000000E+00
(PID.TID 0000.0001) %MON exf_runoff_mean              =   1.6070446344693E-09
(PID.TID 0000.0001) %MON exf_runoff_sd                =   5.4409705936606E-09
(PID.TID 0000.0001) %MON exf_runoff_del2              =   1.7602788524736E-12
(PID.TID 0000.0001) // =======================================================
(PID.TID 0000.0001) // End MONITOR EXF statistics
(PID.TID 0000.0001) // =======================================================
 cg2d: Sum(rhs),rhsMax =  -1.28103248739053E+05  1.99881984352316E-02
 cg2d: Sum(rhs),rhsMax =  -1.28343878568833E+05  1.97557557001627E-02
 cg2d: Sum(rhs),rhsMax =  -1.28571037850079E+05  1.95143075005504E-02
 cg2d: Sum(rhs),rhsMax =  -1.28784695579597E+05  1.92641220722300E-02
 cg2d: Sum(rhs),rhsMax =  -1.28984822471237E+05  1.90054932886793E-02
 cg2d: Sum(rhs),rhsMax =  -1.29171390960271E+05  1.87387210418548E-02
 cg2d: Sum(rhs),rhsMax =  -1.29344375207622E+05  1.84640909919096E-02
 cg2d: Sum(rhs),rhsMax =  -1.29503751103820E+05  1.81818595985817E-02
 cg2d: Sum(rhs),rhsMax =  -1.29649496272820E+05  1.78922400872860E-02
 cg2d: Sum(rhs),rhsMax =  -1.29781590075543E+05  1.75953940813240E-02
 cg2d: Sum(rhs),rhsMax =  -1.29900013613267E+05  1.72914244868114E-02
 cg2d: Sum(rhs),rhsMax =  -1.30004749730750E+05  1.69803737776188E-02
 cg2d: Sum(rhs),rhsMax =  -1.30095783019209E+05  1.66622232435036E-02
 cg2d: Sum(rhs),rhsMax =  -1.30173099819002E+05  1.63368974325379E-02
 cg2d: Sum(rhs),rhsMax =  -1.30236688222199E+05  1.60042692595785E-02
 cg2d: Sum(rhs),rhsMax =  -1.30286538074833E+05  1.56641694544009E-02
 cg2d: Sum(rhs),rhsMax =  -1.30322640979041E+05  1.53163961068352E-02
 cg2d: Sum(rhs),rhsMax =  -1.30344990294887E+05  1.49607275116296E-02
 cg2d: Sum(rhs),rhsMax =  -1.30353581142082E+05  1.45969342964066E-02
 cg2d: Sum(rhs),rhsMax =  -1.30348410401369E+05  1.42247935393396E-02
 cg2d: Sum(rhs),rhsMax =  -1.30329476715812E+05  1.38441025016423E-02
 cg2d: Sum(rhs),rhsMax =  -1.30296780491758E+05  1.34546876828646E-02
 cg2d: Sum(rhs),rhsMax =  -1.30250323899684E+05  1.30564158133462E-02
 cg2d: Sum(rhs),rhsMax =  -1.30190110874722E+05  1.26492011602824E-02
 cg2d: Sum(rhs),rhsMax =  -1.30116147117086E+05  1.22330126185804E-02
 cg2d: Sum(rhs),rhsMax =  -1.30028440092145E+05  1.18078755748343E-02
 cg2d: Sum(rhs),rhsMax =  -1.29926999030425E+05  1.13738727072090E-02
 cg2d: Sum(rhs),rhsMax =  -1.29811834927246E+05  1.09311414894234E-02
 cg2d: Sum(rhs),rhsMax =  -1.29682960542275E+05  1.04798669930202E-02
 cg2d: Sum(rhs),rhsMax =  -1.29540390398733E+05  1.00202753831823E-02
 cg2d: Sum(rhs),rhsMax =  -1.29384140782513E+05  9.55262529478272E-03
 cg2d: Sum(rhs),rhsMax =  -1.29214229740935E+05  9.07720014405172E-03
 cg2d: Sum(rhs),rhsMax =  -1.29030677081438E+05  8.59429902036929E-03
 cg2d: Sum(rhs),rhsMax =  -1.28833504369890E+05  8.10422483179874E-03
 cg2d: Sum(rhs),rhsMax =  -1.28622734928833E+05  7.60727476128565E-03
 cg2d: Sum(rhs),rhsMax =  -1.28398393835360E+05  7.10373218225793E-03
 cg2d: Sum(rhs),rhsMax =  -1.28160507918920E+05  6.59385752147532E-03
 cg2d: Sum(rhs),rhsMax =  -1.27909105758746E+05  6.07788205287701E-03
 cg2d: Sum(rhs),rhsMax =  -1.27644217681220E+05  5.55600382556177E-03
 cg2d: Sum(rhs),rhsMax =  -1.27365875756872E+05  5.02838385055530E-03
 cg2d: Sum(rhs),rhsMax =  -1.27074113797286E+05  4.49514611279085E-03
 cg2d: Sum(rhs),rhsMax =  -1.26768967351661E+05  3.95638056371736E-03
 cg2d: Sum(rhs),rhsMax =  -1.26450473703290E+05  3.41214693182959E-03
 cg2d: Sum(rhs),rhsMax =  -1.26118671865662E+05  2.86248207061843E-03
 cg2d: Sum(rhs),rhsMax =  -1.25773602578503E+05  2.31484339303009E-03
(PID.TID 0000.0001)      cg2d_init_res =   5.84863650446480E-01
(PID.TID 0000.0001)      cg2d_iters(min,last) =      -1     149
(PID.TID 0000.0001)      cg2d_last_res =   2.06446091121926E-11
(PID.TID 0000.0001) // =======================================================
(PID.TID 0000.0001) // Begin MONITOR dynamic field statistics
(PID.TID 0000.0001) // =======================================================
(PID.TID 0000.0001) %MON time_tsnumber                =              15811290
(PID.TID 0000.0001) %MON time_secondsf                =   1.2649032000000E+09
(PID.TID 0000.0001) %MON dynstat_eta_max              =   1.3075030421801E+00
(PID.TID 0000.0001) %MON dynstat_eta_min              =  -1.1284670546234E+00
(PID.TID 0000.0001) %MON dynstat_eta_mean             =   4.7532578077582E-01
(PID.TID 0000.0001) %MON dynstat_eta_sd               =   3.4542217508611E-01
(PID.TID 0000.0001) %MON dynstat_eta_del2             =   1.0354359718253E-06
(PID.TID 0000.0001) %MON dynstat_uvel_max             =   2.8149212745853E+00
(PID.TID 0000.0001) %MON dynstat_uvel_min             =  -2.7268249567889E+00
(PID.TID 0000.0001) %MON dynstat_uvel_mean            =   1.8557612204546E-02
(PID.TID 0000.0001) %MON dynstat_uvel_sd              =   9.3825428320627E-02
(PID.TID 0000.0001) %MON dynstat_uvel_del2            =   1.9051978634696E-06
(PID.TID 0000.0001) %MON dynstat_vvel_max             =   2.9247066864031E+00
(PID.TID 0000.0001) %MON dynstat_vvel_min             =  -2.9218676345764E+00
(PID.TID 0000.0001) %MON dynstat_vvel_mean            =   7.1908739513086E-03
(PID.TID 0000.0001) %MON dynstat_vvel_sd              =   8.5746270763026E-02
(PID.TID 0000.0001) %MON dynstat_vvel_del2            =   1.7931141643430E-06
(PID.TID 0000.0001) %MON dynstat_wvel_max             =   4.6795550560780E-02
(PID.TID 0000.0001) %MON dynstat_wvel_min             =  -3.4991180743532E-02
(PID.TID 0000.0001) %MON dynstat_wvel_mean            =  -9.4799515396590E-06
(PID.TID 0000.0001) %MON dynstat_wvel_sd              =   1.6321489925647E-03
(PID.TID 0000.0001) %MON dynstat_wvel_del2            =   9.6138802626629E-08
(PID.TID 0000.0001) %MON dynstat_theta_max            =   2.4969338790588E+01
(PID.TID 0000.0001) %MON dynstat_theta_min            =  -2.5272021182949E+00
(PID.TID 0000.0001) %MON dynstat_theta_mean           =   5.5819202222863E+00
(PID.TID 0000.0001) %MON dynstat_theta_sd             =   4.6759647557555E+00
(PID.TID 0000.0001) %MON dynstat_theta_del2           =   7.4579506442288E-06
(PID.TID 0000.0001) %MON dynstat_salt_max             =   8.9683465098831E+01
(PID.TID 0000.0001) %MON dynstat_salt_min             =   2.0151628567559E+00
(PID.TID 0000.0001) %MON dynstat_salt_mean            =   3.5191251665089E+01
(PID.TID 0000.0001) %MON dynstat_salt_sd              =   4.5266388148776E-01
(PID.TID 0000.0001) %MON dynstat_salt_del2            =   1.4907993014804E-06
(PID.TID 0000.0001) %MON dynstat_sst_max              =   2.4954091254732E+01
(PID.TID 0000.0001) %MON dynstat_sst_min              =  -2.5272021182949E+00
(PID.TID 0000.0001) %MON dynstat_sst_mean             =   1.7735774050176E+01
(PID.TID 0000.0001) %MON dynstat_sst_sd               =   3.4071237871564E+00
(PID.TID 0000.0001) %MON dynstat_sst_del2             =   9.8901692323566E-05
(PID.TID 0000.0001) %MON dynstat_sss_max              =   8.9681479532004E+01
(PID.TID 0000.0001) %MON dynstat_sss_min              =   2.0151628567559E+00
(PID.TID 0000.0001) %MON dynstat_sss_mean             =   3.6426044488226E+01
(PID.TID 0000.0001) %MON dynstat_sss_sd               =   4.5290264244503E-01
(PID.TID 0000.0001) %MON dynstat_sss_del2             =   1.9377320625798E-05
(PID.TID 0000.0001) %MON forcing_qnet_max             =   1.1969328715849E+03
(PID.TID 0000.0001) %MON forcing_qnet_min             =  -1.5311016544048E+02
(PID.TID 0000.0001) %MON forcing_qnet_mean            =   2.2301539274173E+02
(PID.TID 0000.0001) %MON forcing_qnet_sd              =   1.4284356846061E+02
(PID.TID 0000.0001) %MON forcing_qnet_del2            =   4.4882124926266E-03
(PID.TID 0000.0001) %MON forcing_qsw_max              =   0.0000000000000E+00
(PID.TID 0000.0001) %MON forcing_qsw_min              =   0.0000000000000E+00
(PID.TID 0000.0001) %MON forcing_qsw_mean             =   0.0000000000000E+00
(PID.TID 0000.0001) %MON forcing_qsw_sd               =   0.0000000000000E+00
(PID.TID 0000.0001) %MON forcing_qsw_del2             =   0.0000000000000E+00
(PID.TID 0000.0001) %MON forcing_empmr_max            =   3.0344217473624E-04
(PID.TID 0000.0001) %MON forcing_empmr_min            =  -1.5254049389073E-03
(PID.TID 0000.0001) %MON forcing_empmr_mean           =  -4.4767316772540E-06
(PID.TID 0000.0001) %MON forcing_empmr_sd             =   1.4495331144727E-04
(PID.TID 0000.0001) %MON forcing_empmr_del2           =   1.4075665416898E-09
(PID.TID 0000.0001) %MON forcing_fu_max               =   9.6091218578683E-01
(PID.TID 0000.0001) %MON forcing_fu_min               =  -1.8625706806138E-01
(PID.TID 0000.0001) %MON forcing_fu_mean              =   1.1646922047728E-01
(PID.TID 0000.0001) %MON forcing_fu_sd                =   1.5642305867001E-01
(PID.TID 0000.0001) %MON forcing_fu_del2              =   8.8318447338233E-07
(PID.TID 0000.0001) %MON forcing_fv_max               =   6.8121498232111E-01
(PID.TID 0000.0001) %MON forcing_fv_min               =  -2.6878201616365E-01
(PID.TID 0000.0001) %MON forcing_fv_mean              =   2.7784144095521E-02
(PID.TID 0000.0001) %MON forcing_fv_sd                =   1.0574672475734E-01
(PID.TID 0000.0001) %MON forcing_fv_del2              =   6.5261193840028E-07
(PID.TID 0000.0001) %MON trAdv_CFL_u_max              =   9.5425222061043E-02
(PID.TID 0000.0001) %MON trAdv_CFL_v_max              =   1.0100551061075E-01
(PID.TID 0000.0001) %MON trAdv_CFL_w_max              =   2.6787229660722E-01
(PID.TID 0000.0001) %MON advcfl_uvel_max              =   9.5425221535370E-02
(PID.TID 0000.0001) %MON advcfl_vvel_max              =   1.0101752933552E-01
(PID.TID 0000.0001) %MON advcfl_wvel_max              =   2.6969566433033E-01
(PID.TID 0000.0001) %MON advcfl_W_hf_max              =   2.7180266170791E-01
(PID.TID 0000.0001) %MON pe_b_mean                    =   1.1992422376811E-02
(PID.TID 0000.0001) %MON ke_max                       =   4.5132178064045E+00
(PID.TID 0000.0001) %MON ke_mean                      =   8.2312124977086E-03
(PID.TID 0000.0001) %MON ke_vol                       =   4.6123795034297E+16
(PID.TID 0000.0001) %MON vort_r_min                   =  -1.1089333713654E-03
(PID.TID 0000.0001) %MON vort_r_max                   =   1.3866986892796E-03
(PID.TID 0000.0001) %MON vort_a_mean                  =   8.2145901705289E-05
(PID.TID 0000.0001) %MON vort_a_sd                    =   1.4067816660141E-05
(PID.TID 0000.0001) %MON vort_p_mean                  =   8.4437932427602E-05
(PID.TID 0000.0001) %MON vort_p_sd                    =   3.4102027760902E-05
(PID.TID 0000.0001) %MON surfExpan_theta_mean         =  -3.3420295959294E-04
(PID.TID 0000.0001) %MON surfExpan_salt_mean          =  -5.9727353497589E-04
(PID.TID 0000.0001) // =======================================================
(PID.TID 0000.0001) // End MONITOR dynamic field statistics
(PID.TID 0000.0001) // =======================================================
(PID.TID 0000.0001) // =======================================================
(PID.TID 0000.0001) // Begin OBCS MONITOR field statistics
(PID.TID 0000.0001) // =======================================================
(PID.TID 0000.0001) %MON obc_E_uVel_max               =   3.3074969082913E-01
(PID.TID 0000.0001) %MON obc_E_uVel_min               =  -7.7384299711897E-03
(PID.TID 0000.0001) %MON obc_E_uVel_mean              =   2.0699535924064E-01
(PID.TID 0000.0001) %MON obc_E_uVel_sd                =   7.7621875369294E-02
(PID.TID 0000.0001) %MON obc_E_uVel_Int               =   1.4126296711166E+06
(PID.TID 0000.0001) %MON obc_N_vVel_max               =   3.5421779259407E-01
(PID.TID 0000.0001) %MON obc_N_vVel_min               =  -5.6928198444938E-01
(PID.TID 0000.0001) %MON obc_N_vVel_mean              =   1.5417376698630E-02
(PID.TID 0000.0001) %MON obc_N_vVel_sd                =   4.0700598491899E-02
(PID.TID 0000.0001) %MON obc_N_vVel_Int               =   2.2000048775970E+08
(PID.TID 0000.0001) %MON obc_S_vVel_max               =   1.2637600695579E+00
(PID.TID 0000.0001) %MON obc_S_vVel_min               =  -1.6173710759091E-01
(PID.TID 0000.0001) %MON obc_S_vVel_mean              =   1.1858523681594E-03
(PID.TID 0000.0001) %MON obc_S_vVel_sd                =   2.7936317915388E-02
(PID.TID 0000.0001) %MON obc_S_vVel_Int               =   3.6059207923128E+07
(PID.TID 0000.0001) %MON obc_E_theta_max              =   1.5981519699097E+01
(PID.TID 0000.0001) %MON obc_E_theta_min              =   1.3104037284851E+01
(PID.TID 0000.0001) %MON obc_E_theta_mean             =   1.4974089986960E+01
(PID.TID 0000.0001) %MON obc_E_theta_sd               =   6.0075505804650E-01
(PID.TID 0000.0001) %MON obc_N_theta_max              =   1.5721092224121E+01
(PID.TID 0000.0001) %MON obc_N_theta_min              =   9.7373789548874E-01
(PID.TID 0000.0001) %MON obc_N_theta_mean             =   5.3443110148828E+00
(PID.TID 0000.0001) %MON obc_N_theta_sd               =   3.5834807335781E+00
(PID.TID 0000.0001) %MON obc_S_theta_max              =   2.4979528427124E+01
(PID.TID 0000.0001) %MON obc_S_theta_min              =   1.5124862194061E+00
(PID.TID 0000.0001) %MON obc_S_theta_mean             =   5.4273114502690E+00
(PID.TID 0000.0001) %MON obc_S_theta_sd               =   5.1694562801555E+00
(PID.TID 0000.0001) %MON obc_E_salt_max               =   3.8703720092773E+01
(PID.TID 0000.0001) %MON obc_E_salt_min               =   3.6289142608643E+01
(PID.TID 0000.0001) %MON obc_E_salt_mean              =   3.6643778075730E+01
(PID.TID 0000.0001) %MON obc_E_salt_sd                =   5.5037722650442E-01
(PID.TID 0000.0001) %MON obc_N_salt_max               =   3.6066974639893E+01
(PID.TID 0000.0001) %MON obc_N_salt_min               =   3.2878395080566E+01
(PID.TID 0000.0001) %MON obc_N_salt_mean              =   3.5117165924185E+01
(PID.TID 0000.0001) %MON obc_N_salt_sd                =   3.1541903364831E-01
(PID.TID 0000.0001) %MON obc_S_salt_max               =   3.7600940704346E+01
(PID.TID 0000.0001) %MON obc_S_salt_min               =   3.4853485107422E+01
(PID.TID 0000.0001) %MON obc_S_salt_mean              =   3.5185630803177E+01
(PID.TID 0000.0001) %MON obc_S_salt_sd                =   4.9502018312198E-01
(PID.TID 0000.0001) // =======================================================
(PID.TID 0000.0001) // End OBCS MONITOR field statistics
(PID.TID 0000.0001) // =======================================================
(PID.TID 0000.0001) // =======================================================
(PID.TID 0000.0001) // Begin MONITOR ptracer field statistics
(PID.TID 0000.0001) // =======================================================
(PID.TID 0000.0001) %MON trcstat_ptracer01_max        =   0.0000000000000E+00
(PID.TID 0000.0001) %MON trcstat_ptracer01_min        =   0.0000000000000E+00
(PID.TID 0000.0001) %MON trcstat_ptracer01_mean       =   0.0000000000000E+00
(PID.TID 0000.0001) %MON trcstat_ptracer01_sd         =   0.0000000000000E+00
(PID.TID 0000.0001) %MON trcstat_ptracer01_del2       =   0.0000000000000E+00
(PID.TID 0000.0001) %MON trcstat_ptracer02_max        =   0.0000000000000E+00
(PID.TID 0000.0001) %MON trcstat_ptracer02_min        =   0.0000000000000E+00
(PID.TID 0000.0001) %MON trcstat_ptracer02_mean       =   0.0000000000000E+00
(PID.TID 0000.0001) %MON trcstat_ptracer02_sd         =   0.0000000000000E+00
(PID.TID 0000.0001) %MON trcstat_ptracer02_del2       =   0.0000000000000E+00
(PID.TID 0000.0001) // =======================================================
(PID.TID 0000.0001) // End MONITOR ptracer field statistics
(PID.TID 0000.0001) // =======================================================
(PID.TID 0000.0001) // =======================================================
(PID.TID 0000.0001) // Begin MONITOR EXF statistics
(PID.TID 0000.0001) // =======================================================
(PID.TID 0000.0001) %MON exf_tsnumber                 =              15811290
(PID.TID 0000.0001) %MON exf_time_sec                 =   1.2649032000000E+09
(PID.TID 0000.0001) %MON exf_ustress_max              =   9.6332467143276E-01
(PID.TID 0000.0001) %MON exf_ustress_min              =  -1.8844372812320E-01
(PID.TID 0000.0001) %MON exf_ustress_mean             =   1.1656036039121E-01
(PID.TID 0000.0001) %MON exf_ustress_sd               =   1.5659217804608E-01
(PID.TID 0000.0001) %MON exf_ustress_del2             =   9.5913933726744E-07
(PID.TID 0000.0001) %MON exf_vstress_max              =   6.8427245247085E-01
(PID.TID 0000.0001) %MON exf_vstress_min              =  -2.7358124808459E-01
(PID.TID 0000.0001) %MON exf_vstress_mean             =   2.7811952975181E-02
(PID.TID 0000.0001) %MON exf_vstress_sd               =   1.0595159208581E-01
(PID.TID 0000.0001) %MON exf_vstress_del2             =   7.2596994113419E-07
(PID.TID 0000.0001) %MON exf_hflux_max                =   1.1706753325293E+03
(PID.TID 0000.0001) %MON exf_hflux_min                =  -1.3573231617734E+02
(PID.TID 0000.0001) %MON exf_hflux_mean               =   2.2286069221175E+02
(PID.TID 0000.0001) %MON exf_hflux_sd                 =   1.3923412109601E+02
(PID.TID 0000.0001) %MON exf_hflux_del2               =   8.0371067360768E-02
(PID.TID 0000.0001) %MON exf_sflux_max                =   3.0414096193730E-07
(PID.TID 0000.0001) %MON exf_sflux_min                =  -1.5298894620924E-06
(PID.TID 0000.0001) %MON exf_sflux_mean               =  -4.4827707580031E-09
(PID.TID 0000.0001) %MON exf_sflux_sd                 =   1.4503706064894E-07
(PID.TID 0000.0001) %MON exf_sflux_del2               =   4.5017279109168E-11
(PID.TID 0000.0001) %MON exf_uwind_max                =   2.0574618518233E+01
(PID.TID 0000.0001) %MON exf_uwind_min                =  -9.5019222622043E+00
(PID.TID 0000.0001) %MON exf_uwind_mean               =   5.4971178672564E+00
(PID.TID 0000.0001) %MON exf_uwind_sd                 =   5.9618405020875E+00
(PID.TID 0000.0001) %MON exf_uwind_del2               =   2.5194038630042E-03
(PID.TID 0000.0001) %MON exf_vwind_max                =   1.6929745303590E+01
(PID.TID 0000.0001) %MON exf_vwind_min                =  -1.2028481139743E+01
(PID.TID 0000.0001) %MON exf_vwind_mean               =   1.0309343517776E+00
(PID.TID 0000.0001) %MON exf_vwind_sd                 =   5.6008748926706E+00
(PID.TID 0000.0001) %MON exf_vwind_del2               =   1.7389546270438E-03
(PID.TID 0000.0001) %MON exf_wspeed_max               =   2.0621277770909E+01
(PID.TID 0000.0001) %MON exf_wspeed_min               =   4.7159117095923E-03
(PID.TID 0000.0001) %MON exf_wspeed_mean              =   9.0087529285874E+00
(PID.TID 0000.0001) %MON exf_wspeed_sd                =   4.1275710643832E+00
(PID.TID 0000.0001) %MON exf_wspeed_del2              =   3.0610307674477E-03
(PID.TID 0000.0001) %MON exf_atemp_max                =   2.9674148226386E+02
(PID.TID 0000.0001) %MON exf_atemp_min                =   2.7117233051438E+02
(PID.TID 0000.0001) %MON exf_atemp_mean               =   2.8923576709440E+02
(PID.TID 0000.0001) %MON exf_atemp_sd                 =   4.6728650930296E+00
(PID.TID 0000.0001) %MON exf_atemp_del2               =   5.0741743067765E-03
(PID.TID 0000.0001) %MON exf_aqh_max                  =   1.5152179522353E-02
(PID.TID 0000.0001) %MON exf_aqh_min                  =   1.8939075582443E-03
(PID.TID 0000.0001) %MON exf_aqh_mean                 =   8.5974436961050E-03
(PID.TID 0000.0001) %MON exf_aqh_sd                   =   3.1023359296484E-03
(PID.TID 0000.0001) %MON exf_aqh_del2                 =   2.7751130067434E-06
(PID.TID 0000.0001) %MON exf_lwflux_max               =   1.6663012752423E+02
(PID.TID 0000.0001) %MON exf_lwflux_min               =  -7.5706293901743E-01
(PID.TID 0000.0001) %MON exf_lwflux_mean              =   6.1864880779628E+01
(PID.TID 0000.0001) %MON exf_lwflux_sd                =   2.7003949851639E+01
(PID.TID 0000.0001) %MON exf_lwflux_del2              =   2.0525641420242E-02
(PID.TID 0000.0001) %MON exf_evap_max                 =   3.1408386960470E-07
(PID.TID 0000.0001) %MON exf_evap_min                 =  -3.6855531958281E-08
(PID.TID 0000.0001) %MON exf_evap_mean                =   5.6071173454415E-08
(PID.TID 0000.0001) %MON exf_evap_sd                  =   3.9818824092340E-08
(PID.TID 0000.0001) %MON exf_evap_del2                =   2.1041115077233E-11
(PID.TID 0000.0001) %MON exf_precip_max               =   1.5561230250586E-06
(PID.TID 0000.0001) %MON exf_precip_min               =   0.0000000000000E+00
(PID.TID 0000.0001) %MON exf_precip_mean              =   5.8946899577949E-08
(PID.TID 0000.0001) %MON exf_precip_sd                =   1.3927033191618E-07
(PID.TID 0000.0001) %MON exf_precip_del2              =   4.7031060819706E-11
(PID.TID 0000.0001) %MON exf_swflux_max               =   0.0000000000000E+00
(PID.TID 0000.0001) %MON exf_swflux_min               =   0.0000000000000E+00
(PID.TID 0000.0001) %MON exf_swflux_mean              =   0.0000000000000E+00
(PID.TID 0000.0001) %MON exf_swflux_sd                =   0.0000000000000E+00
(PID.TID 0000.0001) %MON exf_swflux_del2              =   0.0000000000000E+00
(PID.TID 0000.0001) %MON exf_swdown_max               =   0.0000000000000E+00
(PID.TID 0000.0001) %MON exf_swdown_min               =   0.0000000000000E+00
(PID.TID 0000.0001) %MON exf_swdown_mean              =   0.0000000000000E+00
(PID.TID 0000.0001) %MON exf_swdown_sd                =   0.0000000000000E+00
(PID.TID 0000.0001) %MON exf_swdown_del2              =   0.0000000000000E+00
(PID.TID 0000.0001) %MON exf_lwdown_max               =   4.1328641809217E+02
(PID.TID 0000.0001) %MON exf_lwdown_min               =   2.0221231477316E+02
(PID.TID 0000.0001) %MON exf_lwdown_mean              =   3.4250342760887E+02
(PID.TID 0000.0001) %MON exf_lwdown_sd                =   3.2730412156302E+01
(PID.TID 0000.0001) %MON exf_lwdown_del2              =   1.0506590103243E-01
(PID.TID 0000.0001) %MON exf_apressure_max            =   1.0275819547476E+05
(PID.TID 0000.0001) %MON exf_apressure_min            =   9.9050623351308E+04
(PID.TID 0000.0001) %MON exf_apressure_mean           =   1.0164783415358E+05
(PID.TID 0000.0001) %MON exf_apressure_sd             =   7.2261608479651E+02
(PID.TID 0000.0001) %MON exf_apressure_del2           =   3.1060641639652E+01
(PID.TID 0000.0001) %MON exf_runoff_max               =   4.6633690723924E-08
(PID.TID 0000.0001) %MON exf_runoff_min               =   0.0000000000000E+00
(PID.TID 0000.0001) %MON exf_runoff_mean              =   1.6070446344693E-09
(PID.TID 0000.0001) %MON exf_runoff_sd                =   5.4409705936606E-09
(PID.TID 0000.0001) %MON exf_runoff_del2              =   1.7602788524736E-12
(PID.TID 0000.0001) // =======================================================
(PID.TID 0000.0001) // End MONITOR EXF statistics
(PID.TID 0000.0001) // =======================================================
 cg2d: Sum(rhs),rhsMax =  -1.25415308303449E+05  2.90148183208095E-03
 cg2d: Sum(rhs),rhsMax =  -1.25043833219630E+05  3.49320357137467E-03
 cg2d: Sum(rhs),rhsMax =  -1.24659223218904E+05  4.08968234978509E-03
 cg2d: Sum(rhs),rhsMax =  -1.24261525901018E+05  4.69056944110839E-03
 cg2d: Sum(rhs),rhsMax =  -1.23850790568385E+05  5.29549955358946E-03
 cg2d: Sum(rhs),rhsMax =  -1.23427068220804E+05  5.90409708958723E-03
 cg2d: Sum(rhs),rhsMax =  -1.22990411549814E+05  6.51598285853943E-03
 cg2d: Sum(rhs),rhsMax =  -1.22540874932962E+05  7.13077370956526E-03
 cg2d: Sum(rhs),rhsMax =  -1.22078514427718E+05  7.74809639996684E-03
 cg2d: Sum(rhs),rhsMax =  -1.21603387765319E+05  8.36758182735660E-03
 cg2d: Sum(rhs),rhsMax =  -1.21115554344236E+05  8.98889331997458E-03
 cg2d: Sum(rhs),rhsMax =  -1.20615075223587E+05  9.61170802242158E-03
 cg2d: Sum(rhs),rhsMax =  -1.20102013116171E+05  1.02357540899848E-02
 cg2d: Sum(rhs),rhsMax =  -1.19576432381438E+05  1.08607801428348E-02
 cg2d: Sum(rhs),rhsMax =  -1.19038399018102E+05  1.14865549401849E-02
 cg2d: Sum(rhs),rhsMax =  -1.18487980656674E+05  1.21128796498508E-02
 cg2d: Sum(rhs),rhsMax =  -1.17925246551646E+05  1.27395883241970E-02
 cg2d: Sum(rhs),rhsMax =  -1.17350267573587E+05  1.33665455564374E-02
 cg2d: Sum(rhs),rhsMax =  -1.16763116200914E+05  1.39936416150072E-02
 cg2d: Sum(rhs),rhsMax =  -1.16163866511545E+05  1.46207862172963E-02
 cg2d: Sum(rhs),rhsMax =  -1.15552594174244E+05  1.52479080153933E-02
 cg2d: Sum(rhs),rhsMax =  -1.14929376439871E+05  1.58749501471318E-02
 cg2d: Sum(rhs),rhsMax =  -1.14294292132286E+05  1.65018695897667E-02
 cg2d: Sum(rhs),rhsMax =  -1.13647421639171E+05  1.71286339431342E-02
 cg2d: Sum(rhs),rhsMax =  -1.12988846902536E+05  1.77552161638986E-02
 cg2d: Sum(rhs),rhsMax =  -1.12318651409103E+05  1.83815927209271E-02
 cg2d: Sum(rhs),rhsMax =  -1.11636920180403E+05  1.90077428144231E-02
 cg2d: Sum(rhs),rhsMax =  -1.10943739762754E+05  1.96336941159177E-02
 cg2d: Sum(rhs),rhsMax =  -1.10239198216930E+05  2.02594057589737E-02
 cg2d: Sum(rhs),rhsMax =  -1.09523385107729E+05  2.08848312584645E-02
 cg2d: Sum(rhs),rhsMax =  -1.08796391493250E+05  2.15099519037684E-02
 cg2d: Sum(rhs),rhsMax =  -1.08058309914033E+05  2.21347918295846E-02
 cg2d: Sum(rhs),rhsMax =  -1.07309234381938E+05  2.27594029405313E-02
 cg2d: Sum(rhs),rhsMax =  -1.06549260368890E+05  2.33838475822357E-02
 cg2d: Sum(rhs),rhsMax =  -1.05778484795347E+05  2.40081948632112E-02
 cg2d: Sum(rhs),rhsMax =  -1.04997006018645E+05  2.46325317396986E-02
 cg2d: Sum(rhs),rhsMax =  -1.04204923821081E+05  2.52569697989134E-02
 cg2d: Sum(rhs),rhsMax =  -1.03402339397853E+05  2.58816478238838E-02
 cg2d: Sum(rhs),rhsMax =  -1.02589355344751E+05  2.65067274484719E-02
 cg2d: Sum(rhs),rhsMax =  -1.01766075645721E+05  2.71323881794494E-02
 cg2d: Sum(rhs),rhsMax =  -1.00932605660153E+05  2.77588214830249E-02
 cg2d: Sum(rhs),rhsMax =  -1.00089052110067E+05  2.83862256749477E-02
 cg2d: Sum(rhs),rhsMax =  -9.92355230670287E+04  2.90148011053929E-02
 cg2d: Sum(rhs),rhsMax =  -9.83721279389373E+04  2.96447455770444E-02
 cg2d: Sum(rhs),rhsMax =  -9.74989774565809E+04  3.02762495250352E-02
(PID.TID 0000.0001)      cg2d_init_res =   7.05480914193164E-01
(PID.TID 0000.0001)      cg2d_iters(min,last) =      -1     150
(PID.TID 0000.0001)      cg2d_last_res =   1.94396556671900E-11
(PID.TID 0000.0001) // =======================================================
(PID.TID 0000.0001) // Begin MONITOR dynamic field statistics
(PID.TID 0000.0001) // =======================================================
(PID.TID 0000.0001) %MON time_tsnumber                =              15811335
(PID.TID 0000.0001) %MON time_secondsf                =   1.2649068000000E+09
(PID.TID 0000.0001) %MON dynstat_eta_max              =   1.3613535603141E+00
(PID.TID 0000.0001) %MON dynstat_eta_min              =  -1.1631337332360E+00
(PID.TID 0000.0001) %MON dynstat_eta_mean             =   3.6846982700895E-01
(PID.TID 0000.0001) %MON dynstat_eta_sd               =   3.9400977459538E-01
(PID.TID 0000.0001) %MON dynstat_eta_del2             =   1.0379177345552E-06
(PID.TID 0000.0001) %MON dynstat_uvel_max             =   2.8197148492274E+00
(PID.TID 0000.0001) %MON dynstat_uvel_min             =  -2.7379072044747E+00
(PID.TID 0000.0001) %MON dynstat_uvel_mean            =   1.3878702433272E-02
(PID.TID 0000.0001) %MON dynstat_uvel_sd              =   9.3723519285186E-02
(PID.TID 0000.0001) %MON dynstat_uvel_del2            =   1.8950157800022E-06
(PID.TID 0000.0001) %MON dynstat_vvel_max             =   2.9547560449602E+00
(PID.TID 0000.0001) %MON dynstat_vvel_min             =  -2.9362243491476E+00
(PID.TID 0000.0001) %MON dynstat_vvel_mean            =   8.8215328719727E-04
(PID.TID 0000.0001) %MON dynstat_vvel_sd              =   8.5932539120259E-02
(PID.TID 0000.0001) %MON dynstat_vvel_del2            =   1.7835351883681E-06
(PID.TID 0000.0001) %MON dynstat_wvel_max             =   4.8701105635587E-02
(PID.TID 0000.0001) %MON dynstat_wvel_min             =  -3.3769730999961E-02
(PID.TID 0000.0001) %MON dynstat_wvel_mean            =  -2.4777824117404E-05
(PID.TID 0000.0001) %MON dynstat_wvel_sd              =   1.6343017341339E-03
(PID.TID 0000.0001) %MON dynstat_wvel_del2            =   9.6157779705688E-08
(PID.TID 0000.0001) %MON dynstat_theta_max            =   2.4968557336067E+01
(PID.TID 0000.0001) %MON dynstat_theta_min            =  -2.5458846689576E+00
(PID.TID 0000.0001) %MON dynstat_theta_mean           =   5.5822305224482E+00
(PID.TID 0000.0001) %MON dynstat_theta_sd             =   4.6763236831959E+00
(PID.TID 0000.0001) %MON dynstat_theta_del2           =   7.4620103094467E-06
(PID.TID 0000.0001) %MON dynstat_salt_max             =   8.9682387064457E+01
(PID.TID 0000.0001) %MON dynstat_salt_min             =   2.0151728486606E+00
(PID.TID 0000.0001) %MON dynstat_salt_mean            =   3.5191286441744E+01
(PID.TID 0000.0001) %MON dynstat_salt_sd              =   4.5271480655172E-01
(PID.TID 0000.0001) %MON dynstat_salt_del2            =   1.4914307378795E-06
(PID.TID 0000.0001) %MON dynstat_sst_max              =   2.4952316229822E+01
(PID.TID 0000.0001) %MON dynstat_sst_min              =  -2.5458846689576E+00
(PID.TID 0000.0001) %MON dynstat_sst_mean             =   1.7731641126734E+01
(PID.TID 0000.0001) %MON dynstat_sst_sd               =   3.4063573164629E+00
(PID.TID 0000.0001) %MON dynstat_sst_del2             =   9.8580633042486E-05
(PID.TID 0000.0001) %MON dynstat_sss_max              =   8.9680254239322E+01
(PID.TID 0000.0001) %MON dynstat_sss_min              =   2.0151728486606E+00
(PID.TID 0000.0001) %MON dynstat_sss_mean             =   3.6425982105487E+01
(PID.TID 0000.0001) %MON dynstat_sss_sd               =   4.5270338535891E-01
(PID.TID 0000.0001) %MON dynstat_sss_del2             =   1.9215521209564E-05
(PID.TID 0000.0001) %MON forcing_qnet_max             =   1.3408002896621E+03
(PID.TID 0000.0001) %MON forcing_qnet_min             =  -1.8212789777142E+02
(PID.TID 0000.0001) %MON forcing_qnet_mean            =   2.2666341352027E+02
(PID.TID 0000.0001) %MON forcing_qnet_sd              =   1.5385721501570E+02
(PID.TID 0000.0001) %MON forcing_qnet_del2            =   4.6460499634203E-03
(PID.TID 0000.0001) %MON forcing_qsw_max              =   0.0000000000000E+00
(PID.TID 0000.0001) %MON forcing_qsw_min              =   0.0000000000000E+00
(PID.TID 0000.0001) %MON forcing_qsw_mean             =   0.0000000000000E+00
(PID.TID 0000.0001) %MON forcing_qsw_sd               =   0.0000000000000E+00
(PID.TID 0000.0001) %MON forcing_qsw_del2             =   0.0000000000000E+00
(PID.TID 0000.0001) %MON forcing_empmr_max            =   3.4212703850132E-04
(PID.TID 0000.0001) %MON forcing_empmr_min            =  -1.5468940986376E-03
(PID.TID 0000.0001) %MON forcing_empmr_mean           =  -4.7283327235597E-06
(PID.TID 0000.0001) %MON forcing_empmr_sd             =   1.4877942358800E-04
(PID.TID 0000.0001) %MON forcing_empmr_del2           =   1.4724202980910E-09
(PID.TID 0000.0001) %MON forcing_fu_max               =   1.0890661196830E+00
(PID.TID 0000.0001) %MON forcing_fu_min               =  -1.9616482571947E-01
(PID.TID 0000.0001) %MON forcing_fu_mean              =   1.2116580149232E-01
(PID.TID 0000.0001) %MON forcing_fu_sd                =   1.6354586819959E-01
(PID.TID 0000.0001) %MON forcing_fu_del2              =   8.9975404450645E-07
(PID.TID 0000.0001) %MON forcing_fv_max               =   7.2088454914748E-01
(PID.TID 0000.0001) %MON forcing_fv_min               =  -2.8590354188989E-01
(PID.TID 0000.0001) %MON forcing_fv_mean              =   2.6906056012544E-02
(PID.TID 0000.0001) %MON forcing_fv_sd                =   1.0954448393295E-01
(PID.TID 0000.0001) %MON forcing_fv_del2              =   6.7375708567283E-07
(PID.TID 0000.0001) %MON trAdv_CFL_u_max              =   9.5591272385961E-02
(PID.TID 0000.0001) %MON trAdv_CFL_v_max              =   1.0204321517618E-01
(PID.TID 0000.0001) %MON trAdv_CFL_w_max              =   2.3086178952191E-01
(PID.TID 0000.0001) %MON advcfl_uvel_max              =   9.5591271859373E-02
(PID.TID 0000.0001) %MON advcfl_vvel_max              =   1.0205541527931E-01
(PID.TID 0000.0001) %MON advcfl_wvel_max              =   2.2457983606553E-01
(PID.TID 0000.0001) %MON advcfl_W_hf_max              =   2.3086178952191E-01
(PID.TID 0000.0001) %MON pe_b_mean                    =   9.3155273892184E-03
(PID.TID 0000.0001) %MON ke_max                       =   4.4339165662099E+00
(PID.TID 0000.0001) %MON ke_mean                      =   8.1367932541869E-03
(PID.TID 0000.0001) %MON ke_vol                       =   4.6123795034297E+16
(PID.TID 0000.0001) %MON vort_r_min                   =  -8.8095628023112E-04
(PID.TID 0000.0001) %MON vort_r_max                   =   1.0426701755848E-03
(PID.TID 0000.0001) %MON vort_a_mean                  =   8.2145898759606E-05
(PID.TID 0000.0001) %MON vort_a_sd                    =   1.4027695730639E-05
(PID.TID 0000.0001) %MON vort_p_mean                  =   8.4437929399728E-05
(PID.TID 0000.0001) %MON vort_p_sd                    =   3.4044675785081E-05
(PID.TID 0000.0001) %MON surfExpan_theta_mean         =  -7.4571416904497E-04
(PID.TID 0000.0001) %MON surfExpan_salt_mean          =  -1.5048683946299E-03
(PID.TID 0000.0001) // =======================================================
(PID.TID 0000.0001) // End MONITOR dynamic field statistics
(PID.TID 0000.0001) // =======================================================
(PID.TID 0000.0001) // =======================================================
(PID.TID 0000.0001) // Begin OBCS MONITOR field statistics
(PID.TID 0000.0001) // =======================================================
(PID.TID 0000.0001) %MON obc_E_uVel_max               =   6.2246543758480E-01
(PID.TID 0000.0001) %MON obc_E_uVel_min               =   2.2806412074902E-01
(PID.TID 0000.0001) %MON obc_E_uVel_mean              =   4.4195808348913E-01
(PID.TID 0000.0001) %MON obc_E_uVel_sd                =   8.7672727418101E-02
(PID.TID 0000.0001) %MON obc_E_uVel_Int               =   3.0161212522681E+06
(PID.TID 0000.0001) %MON obc_N_vVel_max               =   2.1328380571996E-01
(PID.TID 0000.0001) %MON obc_N_vVel_min               =  -5.4884125593909E-01
(PID.TID 0000.0001) %MON obc_N_vVel_mean              =   1.4762915895031E-02
(PID.TID 0000.0001) %MON obc_N_vVel_sd                =   4.0456306264737E-02
(PID.TID 0000.0001) %MON obc_N_vVel_Int               =   2.1066156461953E+08
(PID.TID 0000.0001) %MON obc_S_vVel_max               =   1.2817352804873E+00
(PID.TID 0000.0001) %MON obc_S_vVel_min               =  -1.6093846753622E-01
(PID.TID 0000.0001) %MON obc_S_vVel_mean              =  -8.3970106686898E-03
(PID.TID 0000.0001) %MON obc_S_vVel_sd                =   2.8466012141988E-02
(PID.TID 0000.0001) %MON obc_S_vVel_Int               =  -2.5533494873817E+08
(PID.TID 0000.0001) %MON obc_E_theta_max              =   1.5981519699097E+01
(PID.TID 0000.0001) %MON obc_E_theta_min              =   1.3104037284851E+01
(PID.TID 0000.0001) %MON obc_E_theta_mean             =   1.4974089986960E+01
(PID.TID 0000.0001) %MON obc_E_theta_sd               =   6.0075505804650E-01
(PID.TID 0000.0001) %MON obc_N_theta_max              =   1.5721092224121E+01
(PID.TID 0000.0001) %MON obc_N_theta_min              =   9.7373789548874E-01
(PID.TID 0000.0001) %MON obc_N_theta_mean             =   5.3443110148828E+00
(PID.TID 0000.0001) %MON obc_N_theta_sd               =   3.5834807335781E+00
(PID.TID 0000.0001) %MON obc_S_theta_max              =   2.4979528427124E+01
(PID.TID 0000.0001) %MON obc_S_theta_min              =   1.5124862194061E+00
(PID.TID 0000.0001) %MON obc_S_theta_mean             =   5.4273114502690E+00
(PID.TID 0000.0001) %MON obc_S_theta_sd               =   5.1694562801555E+00
(PID.TID 0000.0001) %MON obc_E_salt_max               =   3.8703720092773E+01
(PID.TID 0000.0001) %MON obc_E_salt_min               =   3.6289142608643E+01
(PID.TID 0000.0001) %MON obc_E_salt_mean              =   3.6643778075730E+01
(PID.TID 0000.0001) %MON obc_E_salt_sd                =   5.5037722650442E-01
(PID.TID 0000.0001) %MON obc_N_salt_max               =   3.6066974639893E+01
(PID.TID 0000.0001) %MON obc_N_salt_min               =   3.2878395080566E+01
(PID.TID 0000.0001) %MON obc_N_salt_mean              =   3.5117165924185E+01
(PID.TID 0000.0001) %MON obc_N_salt_sd                =   3.1541903364831E-01
(PID.TID 0000.0001) %MON obc_S_salt_max               =   3.7600940704346E+01
(PID.TID 0000.0001) %MON obc_S_salt_min               =   3.4853485107422E+01
(PID.TID 0000.0001) %MON obc_S_salt_mean              =   3.5185630803177E+01
(PID.TID 0000.0001) %MON obc_S_salt_sd                =   4.9502018312198E-01
(PID.TID 0000.0001) // =======================================================
(PID.TID 0000.0001) // End OBCS MONITOR field statistics
(PID.TID 0000.0001) // =======================================================
(PID.TID 0000.0001) // =======================================================
(PID.TID 0000.0001) // Begin MONITOR ptracer field statistics
(PID.TID 0000.0001) // =======================================================
(PID.TID 0000.0001) %MON trcstat_ptracer01_max        =   0.0000000000000E+00
(PID.TID 0000.0001) %MON trcstat_ptracer01_min        =   0.0000000000000E+00
(PID.TID 0000.0001) %MON trcstat_ptracer01_mean       =   0.0000000000000E+00
(PID.TID 0000.0001) %MON trcstat_ptracer01_sd         =   0.0000000000000E+00
(PID.TID 0000.0001) %MON trcstat_ptracer01_del2       =   0.0000000000000E+00
(PID.TID 0000.0001) %MON trcstat_ptracer02_max        =   0.0000000000000E+00
(PID.TID 0000.0001) %MON trcstat_ptracer02_min        =   0.0000000000000E+00
(PID.TID 0000.0001) %MON trcstat_ptracer02_mean       =   0.0000000000000E+00
(PID.TID 0000.0001) %MON trcstat_ptracer02_sd         =   0.0000000000000E+00
(PID.TID 0000.0001) %MON trcstat_ptracer02_del2       =   0.0000000000000E+00
(PID.TID 0000.0001) // =======================================================
(PID.TID 0000.0001) // End MONITOR ptracer field statistics
(PID.TID 0000.0001) // =======================================================
(PID.TID 0000.0001) // =======================================================
(PID.TID 0000.0001) // Begin MONITOR EXF statistics
(PID.TID 0000.0001) // =======================================================
(PID.TID 0000.0001) %MON exf_tsnumber                 =              15811335
(PID.TID 0000.0001) %MON exf_time_sec                 =   1.2649068000000E+09
(PID.TID 0000.0001) %MON exf_ustress_max              =   1.0935627952269E+00
(PID.TID 0000.0001) %MON exf_ustress_min              =  -1.9676120697562E-01
(PID.TID 0000.0001) %MON exf_ustress_mean             =   1.2126501745653E-01
(PID.TID 0000.0001) %MON exf_ustress_sd               =   1.6377513328952E-01
(PID.TID 0000.0001) %MON exf_ustress_del2             =   9.7708056094691E-07
(PID.TID 0000.0001) %MON exf_vstress_max              =   7.2300919812656E-01
(PID.TID 0000.0001) %MON exf_vstress_min              =  -2.8879408149083E-01
(PID.TID 0000.0001) %MON exf_vstress_mean             =   2.6892043331469E-02
(PID.TID 0000.0001) %MON exf_vstress_sd               =   1.0972820071085E-01
(PID.TID 0000.0001) %MON exf_vstress_del2             =   7.4873602003226E-07
(PID.TID 0000.0001) %MON exf_hflux_max                =   1.3116419835229E+03
(PID.TID 0000.0001) %MON exf_hflux_min                =  -1.5703121772975E+02
(PID.TID 0000.0001) %MON exf_hflux_mean               =   2.2650076853951E+02
(PID.TID 0000.0001) %MON exf_hflux_sd                 =   1.5012589370558E+02
(PID.TID 0000.0001) %MON exf_hflux_del2               =   8.3091505703530E-02
(PID.TID 0000.0001) %MON exf_sflux_max                =   3.4298876519156E-07
(PID.TID 0000.0001) %MON exf_sflux_min                =  -1.5427920032893E-06
(PID.TID 0000.0001) %MON exf_sflux_mean               =  -4.7220210167745E-09
(PID.TID 0000.0001) %MON exf_sflux_sd                 =   1.4884269999422E-07
(PID.TID 0000.0001) %MON exf_sflux_del2               =   4.6169849177366E-11
(PID.TID 0000.0001) %MON exf_uwind_max                =   2.1485670429035E+01
(PID.TID 0000.0001) %MON exf_uwind_min                =  -1.0329379519226E+01
(PID.TID 0000.0001) %MON exf_uwind_mean               =   5.5956258858472E+00
(PID.TID 0000.0001) %MON exf_uwind_sd                 =   6.0612298173556E+00
(PID.TID 0000.0001) %MON exf_uwind_del2               =   2.5628111446338E-03
(PID.TID 0000.0001) %MON exf_vwind_max                =   1.7481127688675E+01
(PID.TID 0000.0001) %MON exf_vwind_min                =  -1.2041864548537E+01
(PID.TID 0000.0001) %MON exf_vwind_mean               =   1.0277249723622E+00
(PID.TID 0000.0001) %MON exf_vwind_sd                 =   5.6873648020344E+00
(PID.TID 0000.0001) %MON exf_vwind_del2               =   1.7649531034118E-03
(PID.TID 0000.0001) %MON exf_wspeed_max               =   2.1599366708956E+01
(PID.TID 0000.0001) %MON exf_wspeed_min               =   1.5404702193259E-03
(PID.TID 0000.0001) %MON exf_wspeed_mean              =   9.1617977592683E+00
(PID.TID 0000.0001) %MON exf_wspeed_sd                =   4.1848936404249E+00
(PID.TID 0000.0001) %MON exf_wspeed_del2              =   3.1115174506264E-03
(PID.TID 0000.0001) %MON exf_atemp_max                =   2.9676264443252E+02
(PID.TID 0000.0001) %MON exf_atemp_min                =   2.7007331748606E+02
(PID.TID 0000.0001) %MON exf_atemp_mean               =   2.8920011608601E+02
(PID.TID 0000.0001) %MON exf_atemp_sd                 =   4.6917553219419E+00
(PID.TID 0000.0001) %MON exf_atemp_del2               =   5.0657140773553E-03
(PID.TID 0000.0001) %MON exf_aqh_max                  =   1.5087034674925E-02
(PID.TID 0000.0001) %MON exf_aqh_min                  =   1.7899393020749E-03
(PID.TID 0000.0001) %MON exf_aqh_mean                 =   8.6114315256864E-03
(PID.TID 0000.0001) %MON exf_aqh_sd                   =   3.0947344212682E-03
(PID.TID 0000.0001) %MON exf_aqh_del2                 =   2.7788359664922E-06
(PID.TID 0000.0001) %MON exf_lwflux_max               =   1.6379134365449E+02
(PID.TID 0000.0001) %MON exf_lwflux_min               =   3.4089801004554E-02
(PID.TID 0000.0001) %MON exf_lwflux_mean              =   6.1602040769699E+01
(PID.TID 0000.0001) %MON exf_lwflux_sd                =   2.7400439392035E+01
(PID.TID 0000.0001) %MON exf_lwflux_del2              =   2.0495673505545E-02
(PID.TID 0000.0001) %MON exf_evap_max                 =   3.5289491065687E-07
(PID.TID 0000.0001) %MON exf_evap_min                 =  -4.3368623646128E-08
(PID.TID 0000.0001) %MON exf_evap_mean                =   5.7120290234903E-08
(PID.TID 0000.0001) %MON exf_evap_sd                  =   4.2404255573599E-08
(PID.TID 0000.0001) %MON exf_evap_del2                =   2.1760757779353E-11
(PID.TID 0000.0001) %MON exf_precip_max               =   1.5625506556790E-06
(PID.TID 0000.0001) %MON exf_precip_min               =   0.0000000000000E+00
(PID.TID 0000.0001) %MON exf_precip_mean              =   6.0235266617208E-08
(PID.TID 0000.0001) %MON exf_precip_sd                =   1.4234002101384E-07
(PID.TID 0000.0001) %MON exf_precip_del2              =   4.8042203560606E-11
(PID.TID 0000.0001) %MON exf_swflux_max               =   0.0000000000000E+00
(PID.TID 0000.0001) %MON exf_swflux_min               =   0.0000000000000E+00
(PID.TID 0000.0001) %MON exf_swflux_mean              =   0.0000000000000E+00
(PID.TID 0000.0001) %MON exf_swflux_sd                =   0.0000000000000E+00
(PID.TID 0000.0001) %MON exf_swflux_del2              =   0.0000000000000E+00
(PID.TID 0000.0001) %MON exf_swdown_max               =   0.0000000000000E+00
(PID.TID 0000.0001) %MON exf_swdown_min               =   0.0000000000000E+00
(PID.TID 0000.0001) %MON exf_swdown_mean              =   0.0000000000000E+00
(PID.TID 0000.0001) %MON exf_swdown_sd                =   0.0000000000000E+00
(PID.TID 0000.0001) %MON exf_swdown_del2              =   0.0000000000000E+00
(PID.TID 0000.0001) %MON exf_lwdown_max               =   4.1171552102683E+02
(PID.TID 0000.0001) %MON exf_lwdown_min               =   2.0141028994939E+02
(PID.TID 0000.0001) %MON exf_lwdown_mean              =   3.4275116231690E+02
(PID.TID 0000.0001) %MON exf_lwdown_sd                =   3.2860507798957E+01
(PID.TID 0000.0001) %MON exf_lwdown_del2              =   1.0514879649203E-01
(PID.TID 0000.0001) %MON exf_apressure_max            =   1.0272497718424E+05
(PID.TID 0000.0001) %MON exf_apressure_min            =   9.8954941597091E+04
(PID.TID 0000.0001) %MON exf_apressure_mean           =   1.0161567669546E+05
(PID.TID 0000.0001) %MON exf_apressure_sd             =   7.3455016679478E+02
(PID.TID 0000.0001) %MON exf_apressure_del2           =   3.1050618178725E+01
(PID.TID 0000.0001) %MON exf_runoff_max               =   4.6633690723924E-08
(PID.TID 0000.0001) %MON exf_runoff_min               =   0.0000000000000E+00
(PID.TID 0000.0001) %MON exf_runoff_mean              =   1.6070446344693E-09
(PID.TID 0000.0001) %MON exf_runoff_sd                =   5.4409705936606E-09
(PID.TID 0000.0001) %MON exf_runoff_del2              =   1.7602788524736E-12
(PID.TID 0000.0001) // =======================================================
(PID.TID 0000.0001) // End MONITOR EXF statistics
(PID.TID 0000.0001) // =======================================================
 cg2d: Sum(rhs),rhsMax =  -9.66161836600519E+04  3.09094918293450E-02
 cg2d: Sum(rhs),rhsMax =  -9.57238598849215E+04  3.15446187817168E-02
 cg2d: Sum(rhs),rhsMax =  -9.48221207482880E+04  3.21817611221285E-02
 cg2d: Sum(rhs),rhsMax =  -9.39110821346031E+04  3.28210223779533E-02
 cg2d: Sum(rhs),rhsMax =  -9.29908611813384E+04  3.34624696797952E-02
 cg2d: Sum(rhs),rhsMax =  -9.20615762644671E+04  3.41061293306887E-02
 cg2d: Sum(rhs),rhsMax =  -9.11233469837732E+04  3.47519866852276E-02
 cg2d: Sum(rhs),rhsMax =  -9.01762941479788E+04  3.53999880844917E-02
 cg2d: Sum(rhs),rhsMax =  -8.92205397597049E+04  3.60500474346141E-02
 cg2d: Sum(rhs),rhsMax =  -8.82562070002559E+04  3.67020372157152E-02
 cg2d: Sum(rhs),rhsMax =  -8.72834202142356E+04  3.73557947230170E-02
 cg2d: Sum(rhs),rhsMax =  -8.63023048939999E+04  3.80111318778935E-02
 cg2d: Sum(rhs),rhsMax =  -8.53129876639385E+04  3.86678449204589E-02
 cg2d: Sum(rhs),rhsMax =  -8.43155962645867E+04  3.93257222651550E-02
 cg2d: Sum(rhs),rhsMax =  -8.33102595365838E+04  3.99845561079423E-02
 cg2d: Sum(rhs),rhsMax =  -8.22971074044722E+04  4.06441687762577E-02
 cg2d: Sum(rhs),rhsMax =  -8.12762708603236E+04  4.13043772595615E-02
 cg2d: Sum(rhs),rhsMax =  -8.02478819472251E+04  4.19650063170274E-02
 cg2d: Sum(rhs),rhsMax =  -7.92120737426018E+04  4.26258992554468E-02
 cg2d: Sum(rhs),rhsMax =  -7.81689803413849E+04  4.32869158144370E-02
 cg2d: Sum(rhs),rhsMax =  -7.71187368390293E+04  4.39479242122395E-02
 cg2d: Sum(rhs),rhsMax =  -7.60614793143943E+04  4.46088073455833E-02
 cg2d: Sum(rhs),rhsMax =  -7.49973448124533E+04  4.52694568482388E-02
 cg2d: Sum(rhs),rhsMax =  -7.39264713268891E+04  4.59297660651485E-02
 cg2d: Sum(rhs),rhsMax =  -7.28489977825178E+04  4.65896264702545E-02
 cg2d: Sum(rhs),rhsMax =  -7.17650640175955E+04  4.72489333285696E-02
 cg2d: Sum(rhs),rhsMax =  -7.06748107659638E+04  4.79075715236817E-02
 cg2d: Sum(rhs),rhsMax =  -6.95783796390925E+04  4.85654354877668E-02
 cg2d: Sum(rhs),rhsMax =  -6.84759131079409E+04  4.92224344149457E-02
 cg2d: Sum(rhs),rhsMax =  -6.73675544847437E+04  4.98784719671460E-02
 cg2d: Sum(rhs),rhsMax =  -6.62534479046162E+04  5.05334374302301E-02
 cg2d: Sum(rhs),rhsMax =  -6.51337383070744E+04  5.11872219570992E-02
 cg2d: Sum(rhs),rhsMax =  -6.40085714173885E+04  5.18397419567038E-02
 cg2d: Sum(rhs),rhsMax =  -6.28780937278692E+04  5.24909087980848E-02
 cg2d: Sum(rhs),rhsMax =  -6.17424524789654E+04  5.31406641620331E-02
 cg2d: Sum(rhs),rhsMax =  -6.06017956403175E+04  5.37890533372326E-02
 cg2d: Sum(rhs),rhsMax =  -5.94562718916313E+04  5.44361157568063E-02
 cg2d: Sum(rhs),rhsMax =  -5.83060306034933E+04  5.50818690527358E-02
 cg2d: Sum(rhs),rhsMax =  -5.71512218180226E+04  5.57263336017831E-02
 cg2d: Sum(rhs),rhsMax =  -5.59919962294789E+04  5.63695456992340E-02
 cg2d: Sum(rhs),rhsMax =  -5.48285051646923E+04  5.70115546095469E-02
 cg2d: Sum(rhs),rhsMax =  -5.36609005634649E+04  5.76524193991220E-02
 cg2d: Sum(rhs),rhsMax =  -5.24893349588093E+04  5.82922130615692E-02
 cg2d: Sum(rhs),rhsMax =  -5.13139614571398E+04  5.89310234145053E-02
 cg2d: Sum(rhs),rhsMax =  -5.01349337183216E+04  5.95689474421445E-02
(PID.TID 0000.0001)      cg2d_init_res =   9.28884168650950E-01
(PID.TID 0000.0001)      cg2d_iters(min,last) =      -1     153
(PID.TID 0000.0001)      cg2d_last_res =   1.86820910292541E-11
(PID.TID 0000.0001) // =======================================================
(PID.TID 0000.0001) // Begin MONITOR dynamic field statistics
(PID.TID 0000.0001) // =======================================================
(PID.TID 0000.0001) %MON time_tsnumber                =              15811380
(PID.TID 0000.0001) %MON time_secondsf                =   1.2649104000000E+09
(PID.TID 0000.0001) %MON dynstat_eta_max              =   1.4580512533057E+00
(PID.TID 0000.0001) %MON dynstat_eta_min              =  -1.1958574109452E+00
(PID.TID 0000.0001) %MON dynstat_eta_mean             =   1.8947081124539E-01
(PID.TID 0000.0001) %MON dynstat_eta_sd               =   3.8321234741651E-01
(PID.TID 0000.0001) %MON dynstat_eta_del2             =   1.0666925183031E-06
(PID.TID 0000.0001) %MON dynstat_uvel_max             =   2.7977794292384E+00
(PID.TID 0000.0001) %MON dynstat_uvel_min             =  -2.6833705155735E+00
(PID.TID 0000.0001) %MON dynstat_uvel_mean            =   6.3804883808508E-03
(PID.TID 0000.0001) %MON dynstat_uvel_sd              =   9.3835222608124E-02
(PID.TID 0000.0001) %MON dynstat_uvel_del2            =   1.8869922977858E-06
(PID.TID 0000.0001) %MON dynstat_vvel_max             =   2.9416362509224E+00
(PID.TID 0000.0001) %MON dynstat_vvel_min             =  -2.9327117642743E+00
(PID.TID 0000.0001) %MON dynstat_vvel_mean            =  -5.2690894806706E-03
(PID.TID 0000.0001) %MON dynstat_vvel_sd              =   8.6053126428527E-02
(PID.TID 0000.0001) %MON dynstat_vvel_del2            =   1.7774279313305E-06
(PID.TID 0000.0001) %MON dynstat_wvel_max             =   4.9705392911126E-02
(PID.TID 0000.0001) %MON dynstat_wvel_min             =  -3.1647310134439E-02
(PID.TID 0000.0001) %MON dynstat_wvel_mean            =  -3.3947068879415E-05
(PID.TID 0000.0001) %MON dynstat_wvel_sd              =   1.6381332577902E-03
(PID.TID 0000.0001) %MON dynstat_wvel_del2            =   9.6303854504707E-08
(PID.TID 0000.0001) %MON dynstat_theta_max            =   2.4967963194738E+01
(PID.TID 0000.0001) %MON dynstat_theta_min            =  -2.5663697822660E+00
(PID.TID 0000.0001) %MON dynstat_theta_mean           =   5.5827256009485E+00
(PID.TID 0000.0001) %MON dynstat_theta_sd             =   4.6768495780654E+00
(PID.TID 0000.0001) %MON dynstat_theta_del2           =   7.4645104421570E-06
(PID.TID 0000.0001) %MON dynstat_salt_max             =   8.9681202890133E+01
(PID.TID 0000.0001) %MON dynstat_salt_min             =   2.0151858056684E+00
(PID.TID 0000.0001) %MON dynstat_salt_mean            =   3.5191341249757E+01
(PID.TID 0000.0001) %MON dynstat_salt_sd              =   4.5278962073216E-01
(PID.TID 0000.0001) %MON dynstat_salt_del2            =   1.4919209969079E-06
(PID.TID 0000.0001) %MON dynstat_sst_max              =   2.4950703950948E+01
(PID.TID 0000.0001) %MON dynstat_sst_min              =  -2.5663697822660E+00
(PID.TID 0000.0001) %MON dynstat_sst_mean             =   1.7727543463498E+01
(PID.TID 0000.0001) %MON dynstat_sst_sd               =   3.4058080375236E+00
(PID.TID 0000.0001) %MON dynstat_sst_del2             =   9.8323754973068E-05
(PID.TID 0000.0001) %MON dynstat_sss_max              =   8.9678596942219E+01
(PID.TID 0000.0001) %MON dynstat_sss_min              =   2.0151858056684E+00
(PID.TID 0000.0001) %MON dynstat_sss_mean             =   3.6425888681931E+01
(PID.TID 0000.0001) %MON dynstat_sss_sd               =   4.5250771854922E-01
(PID.TID 0000.0001) %MON dynstat_sss_del2             =   1.9064256640682E-05
(PID.TID 0000.0001) %MON forcing_qnet_max             =   1.4148322841563E+03
(PID.TID 0000.0001) %MON forcing_qnet_min             =  -2.3547229110480E+02
(PID.TID 0000.0001) %MON forcing_qnet_mean            =   2.3033556488985E+02
(PID.TID 0000.0001) %MON forcing_qnet_sd              =   1.6416788291233E+02
(PID.TID 0000.0001) %MON forcing_qnet_del2            =   4.7491547369090E-03
(PID.TID 0000.0001) %MON forcing_qsw_max              =   0.0000000000000E+00
(PID.TID 0000.0001) %MON forcing_qsw_min              =   0.0000000000000E+00
(PID.TID 0000.0001) %MON forcing_qsw_mean             =   0.0000000000000E+00
(PID.TID 0000.0001) %MON forcing_qsw_sd               =   0.0000000000000E+00
(PID.TID 0000.0001) %MON forcing_qsw_del2             =   0.0000000000000E+00
(PID.TID 0000.0001) %MON forcing_empmr_max            =   3.5237382946372E-04
(PID.TID 0000.0001) %MON forcing_empmr_min            =  -1.5033830945858E-03
(PID.TID 0000.0001) %MON forcing_empmr_mean           =  -5.6916905801661E-06
(PID.TID 0000.0001) %MON forcing_empmr_sd             =   1.5445898266330E-04
(PID.TID 0000.0001) %MON forcing_empmr_del2           =   1.4801722863452E-09
(PID.TID 0000.0001) %MON forcing_fu_max               =   1.1076056685359E+00
(PID.TID 0000.0001) %MON forcing_fu_min               =  -2.3151702172142E-01
(PID.TID 0000.0001) %MON forcing_fu_mean              =   1.2451610588648E-01
(PID.TID 0000.0001) %MON forcing_fu_sd                =   1.6769943249009E-01
(PID.TID 0000.0001) %MON forcing_fu_del2              =   9.1216291903609E-07
(PID.TID 0000.0001) %MON forcing_fv_max               =   7.4863387583978E-01
(PID.TID 0000.0001) %MON forcing_fv_min               =  -3.2412298787866E-01
(PID.TID 0000.0001) %MON forcing_fv_mean              =   2.6171755389308E-02
(PID.TID 0000.0001) %MON forcing_fv_sd                =   1.1457566358012E-01
(PID.TID 0000.0001) %MON forcing_fv_del2              =   6.9594225054211E-07
(PID.TID 0000.0001) %MON trAdv_CFL_u_max              =   9.4824487774807E-02
(PID.TID 0000.0001) %MON trAdv_CFL_v_max              =   1.0159012953124E-01
(PID.TID 0000.0001) %MON trAdv_CFL_w_max              =   3.2169013173436E-01
(PID.TID 0000.0001) %MON advcfl_uvel_max              =   9.4824487252465E-02
(PID.TID 0000.0001) %MON advcfl_vvel_max              =   1.0160226584548E-01
(PID.TID 0000.0001) %MON advcfl_wvel_max              =   3.2011167181417E-01
(PID.TID 0000.0001) %MON advcfl_W_hf_max              =   3.2169013173436E-01
(PID.TID 0000.0001) %MON pe_b_mean                    =   4.8206838109695E-03
(PID.TID 0000.0001) %MON ke_max                       =   4.3160109123907E+00
(PID.TID 0000.0001) %MON ke_mean                      =   8.0953640419907E-03
(PID.TID 0000.0001) %MON ke_vol                       =   4.6123795034297E+16
(PID.TID 0000.0001) %MON vort_r_min                   =  -1.5450199957815E-03
(PID.TID 0000.0001) %MON vort_r_max                   =   1.4884091428402E-03
(PID.TID 0000.0001) %MON vort_a_mean                  =   8.2145895955705E-05
(PID.TID 0000.0001) %MON vort_a_sd                    =   1.4005377854048E-05
(PID.TID 0000.0001) %MON vort_p_mean                  =   8.4437926517593E-05
(PID.TID 0000.0001) %MON vort_p_sd                    =   3.4026517491780E-05
(PID.TID 0000.0001) %MON surfExpan_theta_mean         =  -9.6740811673770E-04
(PID.TID 0000.0001) %MON surfExpan_salt_mean          =  -2.0296841839103E-03
(PID.TID 0000.0001) // =======================================================
(PID.TID 0000.0001) // End MONITOR dynamic field statistics
(PID.TID 0000.0001) // =======================================================
(PID.TID 0000.0001) // =======================================================
(PID.TID 0000.0001) // Begin OBCS MONITOR field statistics
(PID.TID 0000.0001) // =======================================================
(PID.TID 0000.0001) %MON obc_E_uVel_max               =   8.0871185232532E-01
(PID.TID 0000.0001) %MON obc_E_uVel_min               =   3.7301298393302E-01
(PID.TID 0000.0001) %MON obc_E_uVel_mean              =   5.8658369323171E-01
(PID.TID 0000.0001) %MON obc_E_uVel_sd                =   9.6511738272818E-02
(PID.TID 0000.0001) %MON obc_E_uVel_Int               =   4.0031116286474E+06
(PID.TID 0000.0001) %MON obc_N_vVel_max               =   2.0593687958169E-01
(PID.TID 0000.0001) %MON obc_N_vVel_min               =  -6.8257013388722E-01
(PID.TID 0000.0001) %MON obc_N_vVel_mean              =   1.0964842870252E-02
(PID.TID 0000.0001) %MON obc_N_vVel_sd                =   3.9514426312210E-02
(PID.TID 0000.0001) %MON obc_N_vVel_Int               =   1.5646441199548E+08
(PID.TID 0000.0001) %MON obc_S_vVel_max               =   1.3044188715793E+00
(PID.TID 0000.0001) %MON obc_S_vVel_min               =  -1.6481988724599E-01
(PID.TID 0000.0001) %MON obc_S_vVel_mean              =  -1.5550168736163E-02
(PID.TID 0000.0001) %MON obc_S_vVel_sd                =   2.9947880700771E-02
(PID.TID 0000.0001) %MON obc_S_vVel_Int               =  -4.7284702780276E+08
(PID.TID 0000.0001) %MON obc_E_theta_max              =   1.5981519699097E+01
(PID.TID 0000.0001) %MON obc_E_theta_min              =   1.3104037284851E+01
(PID.TID 0000.0001) %MON obc_E_theta_mean             =   1.4974089986960E+01
(PID.TID 0000.0001) %MON obc_E_theta_sd               =   6.0075505804650E-01
(PID.TID 0000.0001) %MON obc_N_theta_max              =   1.5721092224121E+01
(PID.TID 0000.0001) %MON obc_N_theta_min              =   9.7373789548874E-01
(PID.TID 0000.0001) %MON obc_N_theta_mean             =   5.3443110148828E+00
(PID.TID 0000.0001) %MON obc_N_theta_sd               =   3.5834807335781E+00
(PID.TID 0000.0001) %MON obc_S_theta_max              =   2.4979528427124E+01
(PID.TID 0000.0001) %MON obc_S_theta_min              =   1.5124862194061E+00
(PID.TID 0000.0001) %MON obc_S_theta_mean             =   5.4273114502690E+00
(PID.TID 0000.0001) %MON obc_S_theta_sd               =   5.1694562801555E+00
(PID.TID 0000.0001) %MON obc_E_salt_max               =   3.8703720092773E+01
(PID.TID 0000.0001) %MON obc_E_salt_min               =   3.6289142608643E+01
(PID.TID 0000.0001) %MON obc_E_salt_mean              =   3.6643778075730E+01
(PID.TID 0000.0001) %MON obc_E_salt_sd                =   5.5037722650442E-01
(PID.TID 0000.0001) %MON obc_N_salt_max               =   3.6066974639893E+01
(PID.TID 0000.0001) %MON obc_N_salt_min               =   3.2878395080566E+01
(PID.TID 0000.0001) %MON obc_N_salt_mean              =   3.5117165924185E+01
(PID.TID 0000.0001) %MON obc_N_salt_sd                =   3.1541903364831E-01
(PID.TID 0000.0001) %MON obc_S_salt_max               =   3.7600940704346E+01
(PID.TID 0000.0001) %MON obc_S_salt_min               =   3.4853485107422E+01
(PID.TID 0000.0001) %MON obc_S_salt_mean              =   3.5185630803177E+01
(PID.TID 0000.0001) %MON obc_S_salt_sd                =   4.9502018312198E-01
(PID.TID 0000.0001) // =======================================================
(PID.TID 0000.0001) // End OBCS MONITOR field statistics
(PID.TID 0000.0001) // =======================================================
(PID.TID 0000.0001) // =======================================================
(PID.TID 0000.0001) // Begin MONITOR ptracer field statistics
(PID.TID 0000.0001) // =======================================================
(PID.TID 0000.0001) %MON trcstat_ptracer01_max        =   0.0000000000000E+00
(PID.TID 0000.0001) %MON trcstat_ptracer01_min        =   0.0000000000000E+00
(PID.TID 0000.0001) %MON trcstat_ptracer01_mean       =   0.0000000000000E+00
(PID.TID 0000.0001) %MON trcstat_ptracer01_sd         =   0.0000000000000E+00
(PID.TID 0000.0001) %MON trcstat_ptracer01_del2       =   0.0000000000000E+00
(PID.TID 0000.0001) %MON trcstat_ptracer02_max        =   0.0000000000000E+00
(PID.TID 0000.0001) %MON trcstat_ptracer02_min        =   0.0000000000000E+00
(PID.TID 0000.0001) %MON trcstat_ptracer02_mean       =   0.0000000000000E+00
(PID.TID 0000.0001) %MON trcstat_ptracer02_sd         =   0.0000000000000E+00
(PID.TID 0000.0001) %MON trcstat_ptracer02_del2       =   0.0000000000000E+00
(PID.TID 0000.0001) // =======================================================
(PID.TID 0000.0001) // End MONITOR ptracer field statistics
(PID.TID 0000.0001) // =======================================================
(PID.TID 0000.0001) // =======================================================
(PID.TID 0000.0001) // Begin MONITOR EXF statistics
(PID.TID 0000.0001) // =======================================================
(PID.TID 0000.0001) %MON exf_tsnumber                 =              15811380
(PID.TID 0000.0001) %MON exf_time_sec                 =   1.2649104000000E+09
(PID.TID 0000.0001) %MON exf_ustress_max              =   1.1092657109193E+00
(PID.TID 0000.0001) %MON exf_ustress_min              =  -2.3343008405521E-01
(PID.TID 0000.0001) %MON exf_ustress_mean             =   1.2458331339530E-01
(PID.TID 0000.0001) %MON exf_ustress_sd               =   1.6786074958083E-01
(PID.TID 0000.0001) %MON exf_ustress_del2             =   9.9037745744075E-07
(PID.TID 0000.0001) %MON exf_vstress_max              =   7.5138188448824E-01
(PID.TID 0000.0001) %MON exf_vstress_min              =  -3.2535201020187E-01
(PID.TID 0000.0001) %MON exf_vstress_mean             =   2.6161657477189E-02
(PID.TID 0000.0001) %MON exf_vstress_sd               =   1.1478226102712E-01
(PID.TID 0000.0001) %MON exf_vstress_del2             =   7.7245136632358E-07
(PID.TID 0000.0001) %MON exf_hflux_max                =   1.3825732360139E+03
(PID.TID 0000.0001) %MON exf_hflux_min                =  -2.0239273596013E+02
(PID.TID 0000.0001) %MON exf_hflux_mean               =   2.3019118987043E+02
(PID.TID 0000.0001) %MON exf_hflux_sd                 =   1.6017901705090E+02
(PID.TID 0000.0001) %MON exf_hflux_del2               =   8.5709946070526E-02
(PID.TID 0000.0001) %MON exf_sflux_max                =   3.5259669589366E-07
(PID.TID 0000.0001) %MON exf_sflux_min                =  -1.5056361269608E-06
(PID.TID 0000.0001) %MON exf_sflux_mean               =  -5.7251134117634E-09
(PID.TID 0000.0001) %MON exf_sflux_sd                 =   1.5465247296783E-07
(PID.TID 0000.0001) %MON exf_sflux_del2               =   4.7975879287212E-11
(PID.TID 0000.0001) %MON exf_uwind_max                =   2.1564755166757E+01
(PID.TID 0000.0001) %MON exf_uwind_min                =  -1.0815359332036E+01
(PID.TID 0000.0001) %MON exf_uwind_mean               =   5.6777605723762E+00
(PID.TID 0000.0001) %MON exf_uwind_sd                 =   6.1017386818509E+00
(PID.TID 0000.0001) %MON exf_uwind_del2               =   2.5889467712196E-03
(PID.TID 0000.0001) %MON exf_vwind_max                =   1.7637622478540E+01
(PID.TID 0000.0001) %MON exf_vwind_min                =  -1.2699946091256E+01
(PID.TID 0000.0001) %MON exf_vwind_mean               =   1.0185696696426E+00
(PID.TID 0000.0001) %MON exf_vwind_sd                 =   5.8117155044223E+00
(PID.TID 0000.0001) %MON exf_vwind_del2               =   1.8024173026115E-03
(PID.TID 0000.0001) %MON exf_wspeed_max               =   2.1705634231754E+01
(PID.TID 0000.0001) %MON exf_wspeed_min               =   3.9763231791717E-03
(PID.TID 0000.0001) %MON exf_wspeed_mean              =   9.3019551904202E+00
(PID.TID 0000.0001) %MON exf_wspeed_sd                =   4.2137075088927E+00
(PID.TID 0000.0001) %MON exf_wspeed_del2              =   3.1543250578056E-03
(PID.TID 0000.0001) %MON exf_atemp_max                =   2.9676955100966E+02
(PID.TID 0000.0001) %MON exf_atemp_min                =   2.6983869584266E+02
(PID.TID 0000.0001) %MON exf_atemp_mean               =   2.8916370020683E+02
(PID.TID 0000.0001) %MON exf_atemp_sd                 =   4.7165763853905E+00
(PID.TID 0000.0001) %MON exf_atemp_del2               =   5.0575599890916E-03
(PID.TID 0000.0001) %MON exf_aqh_max                  =   1.5098454709973E-02
(PID.TID 0000.0001) %MON exf_aqh_min                  =   1.7485874445549E-03
(PID.TID 0000.0001) %MON exf_aqh_mean                 =   8.6216446957079E-03
(PID.TID 0000.0001) %MON exf_aqh_sd                   =   3.0819159986427E-03
(PID.TID 0000.0001) %MON exf_aqh_del2                 =   2.7809959961575E-06
(PID.TID 0000.0001) %MON exf_lwflux_max               =   1.6348445912263E+02
(PID.TID 0000.0001) %MON exf_lwflux_min               =  -2.6125696040989E-01
(PID.TID 0000.0001) %MON exf_lwflux_mean              =   6.1459848904491E+01
(PID.TID 0000.0001) %MON exf_lwflux_sd                =   2.7310715426864E+01
(PID.TID 0000.0001) %MON exf_lwflux_del2              =   2.0439608763888E-02
(PID.TID 0000.0001) %MON exf_evap_max                 =   3.6858149539903E-07
(PID.TID 0000.0001) %MON exf_evap_min                 =  -6.0365618702047E-08
(PID.TID 0000.0001) %MON exf_evap_mean                =   5.8155373252641E-08
(PID.TID 0000.0001) %MON exf_evap_sd                  =   4.4825105386914E-08
(PID.TID 0000.0001) %MON exf_evap_del2                =   2.2446319291002E-11
(PID.TID 0000.0001) %MON exf_precip_max               =   1.5710126319826E-06
(PID.TID 0000.0001) %MON exf_precip_min               =   0.0000000000000E+00
(PID.TID 0000.0001) %MON exf_precip_mean              =   6.2273442029935E-08
(PID.TID 0000.0001) %MON exf_precip_sd                =   1.4771452005158E-07
(PID.TID 0000.0001) %MON exf_precip_del2              =   4.9820816260162E-11
(PID.TID 0000.0001) %MON exf_swflux_max               =   0.0000000000000E+00
(PID.TID 0000.0001) %MON exf_swflux_min               =   0.0000000000000E+00
(PID.TID 0000.0001) %MON exf_swflux_mean              =   0.0000000000000E+00
(PID.TID 0000.0001) %MON exf_swflux_sd                =   0.0000000000000E+00
(PID.TID 0000.0001) %MON exf_swflux_del2              =   0.0000000000000E+00
(PID.TID 0000.0001) %MON exf_swdown_max               =   0.0000000000000E+00
(PID.TID 0000.0001) %MON exf_swdown_min               =   0.0000000000000E+00
(PID.TID 0000.0001) %MON exf_swdown_mean              =   0.0000000000000E+00
(PID.TID 0000.0001) %MON exf_swdown_sd                =   0.0000000000000E+00
(PID.TID 0000.0001) %MON exf_swdown_del2              =   0.0000000000000E+00
(PID.TID 0000.0001) %MON exf_lwdown_max               =   4.1343645655817E+02
(PID.TID 0000.0001) %MON exf_lwdown_min               =   1.9994295450190E+02
(PID.TID 0000.0001) %MON exf_lwdown_mean              =   3.4287475647229E+02
(PID.TID 0000.0001) %MON exf_lwdown_sd                =   3.2664639407180E+01
(PID.TID 0000.0001) %MON exf_lwdown_del2              =   1.0518666268176E-01
(PID.TID 0000.0001) %MON exf_apressure_max            =   1.0272217712089E+05
(PID.TID 0000.0001) %MON exf_apressure_min            =   9.8943709336146E+04
(PID.TID 0000.0001) %MON exf_apressure_mean           =   1.0158537311061E+05
(PID.TID 0000.0001) %MON exf_apressure_sd             =   7.4489304423659E+02
(PID.TID 0000.0001) %MON exf_apressure_del2           =   3.1041156579335E+01
(PID.TID 0000.0001) %MON exf_runoff_max               =   4.6633690723924E-08
(PID.TID 0000.0001) %MON exf_runoff_min               =   0.0000000000000E+00
(PID.TID 0000.0001) %MON exf_runoff_mean              =   1.6070446344693E-09
(PID.TID 0000.0001) %MON exf_runoff_sd                =   5.4409705936606E-09
(PID.TID 0000.0001) %MON exf_runoff_del2              =   1.7602788524736E-12
(PID.TID 0000.0001) // =======================================================
(PID.TID 0000.0001) // End MONITOR EXF statistics
(PID.TID 0000.0001) // =======================================================
 cg2d: Sum(rhs),rhsMax =  -4.89524059356869E+04  6.02060862210010E-02
 cg2d: Sum(rhs),rhsMax =  -4.77665328158920E+04  6.08425423821026E-02
 cg2d: Sum(rhs),rhsMax =  -4.65774695587570E+04  6.14784017445686E-02
 cg2d: Sum(rhs),rhsMax =  -4.53853718369640E+04  6.21137387652793E-02
 cg2d: Sum(rhs),rhsMax =  -4.41903957757203E+04  6.27486141086657E-02
 cg2d: Sum(rhs),rhsMax =  -4.29926979322996E+04  6.33830676612798E-02
 cg2d: Sum(rhs),rhsMax =  -4.17924352755581E+04  6.40171278045966E-02
 cg2d: Sum(rhs),rhsMax =  -4.05897651653220E+04  6.46508046288756E-02
 cg2d: Sum(rhs),rhsMax =  -3.93848453317586E+04  6.52840923703839E-02
 cg2d: Sum(rhs),rhsMax =  -3.81778338546334E+04  6.59169719304853E-02
 cg2d: Sum(rhs),rhsMax =  -3.69688891425445E+04  6.65494234065346E-02
 cg2d: Sum(rhs),rhsMax =  -3.57581699120529E+04  6.71814252365604E-02
 cg2d: Sum(rhs),rhsMax =  -3.45458351668064E+04  6.78130527104414E-02
 cg2d: Sum(rhs),rhsMax =  -3.33320441765458E+04  6.84441930402987E-02
 cg2d: Sum(rhs),rhsMax =  -3.21169564561201E+04  6.90747769165626E-02
 cg2d: Sum(rhs),rhsMax =  -3.09007317443994E+04  6.97047886384281E-02
 cg2d: Sum(rhs),rhsMax =  -2.96835299831844E+04  7.03342263546842E-02
 cg2d: Sum(rhs),rhsMax =  -2.84655112960282E+04  7.09631016507160E-02
 cg2d: Sum(rhs),rhsMax =  -2.72468359670704E+04  7.15913650449522E-02
 cg2d: Sum(rhs),rhsMax =  -2.60276644197713E+04  7.22189242552299E-02
 cg2d: Sum(rhs),rhsMax =  -2.48081571956710E+04  7.28456720935072E-02
 cg2d: Sum(rhs),rhsMax =  -2.35884749330652E+04  7.34714940009440E-02
 cg2d: Sum(rhs),rhsMax =  -2.23687783456957E+04  7.40962612613867E-02
 cg2d: Sum(rhs),rhsMax =  -2.11492282013716E+04  7.47198208741934E-02
 cg2d: Sum(rhs),rhsMax =  -1.99299853006167E+04  7.53419906425341E-02
 cg2d: Sum(rhs),rhsMax =  -1.87112104552422E+04  7.59625600322624E-02
 cg2d: Sum(rhs),rhsMax =  -1.74930644669564E+04  7.65812891530717E-02
 cg2d: Sum(rhs),rhsMax =  -1.62757081059110E+04  7.71979122431274E-02
 cg2d: Sum(rhs),rhsMax =  -1.50593020892810E+04  7.78121461990603E-02
 cg2d: Sum(rhs),rhsMax =  -1.38440070597947E+04  7.84237135002261E-02
 cg2d: Sum(rhs),rhsMax =  -1.26299835643032E+04  7.90322954083633E-02
 cg2d: Sum(rhs),rhsMax =  -1.14173920323021E+04  7.96375598256800E-02
 cg2d: Sum(rhs),rhsMax =  -1.02063927544971E+04  8.02391783964414E-02
 cg2d: Sum(rhs),rhsMax =  -8.99714586133837E+03  8.08368315204441E-02
 cg2d: Sum(rhs),rhsMax =  -7.78981130159375E+03  8.14302203402905E-02
 cg2d: Sum(rhs),rhsMax =  -6.58454882090114E+03  8.20190247887749E-02
 cg2d: Sum(rhs),rhsMax =  -5.38151794037038E+03  8.26029163627816E-02
 cg2d: Sum(rhs),rhsMax =  -4.18087793516406E+03  8.31815743325720E-02
 cg2d: Sum(rhs),rhsMax =  -2.98278781313357E+03  8.37546676176523E-02
 cg2d: Sum(rhs),rhsMax =  -1.78740629344675E+03  8.43218641536431E-02
 cg2d: Sum(rhs),rhsMax =  -5.94891785272339E+02  8.48828356768386E-02
 cg2d: Sum(rhs),rhsMax =   5.94597633537596E+02  8.54372553806860E-02
 cg2d: Sum(rhs),rhsMax =   1.78090423769912E+03  8.59847931851210E-02
 cg2d: Sum(rhs),rhsMax =   2.96387067574773E+03  8.65250833636849E-02
 cg2d: Sum(rhs),rhsMax =   4.14333999121705E+03  8.70577858995483E-02
(PID.TID 0000.0001)      cg2d_init_res =   1.04540954588801E+00
(PID.TID 0000.0001)      cg2d_iters(min,last) =      -1     153
(PID.TID 0000.0001)      cg2d_last_res =   2.09275735466516E-11
(PID.TID 0000.0001) // =======================================================
(PID.TID 0000.0001) // Begin MONITOR dynamic field statistics
(PID.TID 0000.0001) // =======================================================
(PID.TID 0000.0001) %MON time_tsnumber                =              15811425
(PID.TID 0000.0001) %MON time_secondsf                =   1.2649140000000E+09
(PID.TID 0000.0001) %MON dynstat_eta_max              =   1.0719052416073E+00
(PID.TID 0000.0001) %MON dynstat_eta_min              =  -1.4214997410129E+00
(PID.TID 0000.0001) %MON dynstat_eta_mean             =  -1.5658582373162E-02
(PID.TID 0000.0001) %MON dynstat_eta_sd               =   3.2803287384481E-01
(PID.TID 0000.0001) %MON dynstat_eta_del2             =   1.1021244461044E-06
(PID.TID 0000.0001) %MON dynstat_uvel_max             =   2.7438981865593E+00
(PID.TID 0000.0001) %MON dynstat_uvel_min             =  -2.6258955331711E+00
(PID.TID 0000.0001) %MON dynstat_uvel_mean            =  -2.0931279845562E-03
(PID.TID 0000.0001) %MON dynstat_uvel_sd              =   9.4052629769394E-02
(PID.TID 0000.0001) %MON dynstat_uvel_del2            =   1.8821499843658E-06
(PID.TID 0000.0001) %MON dynstat_vvel_max             =   2.9153095899908E+00
(PID.TID 0000.0001) %MON dynstat_vvel_min             =  -2.9072780212238E+00
(PID.TID 0000.0001) %MON dynstat_vvel_mean            =  -9.6964475234661E-03
(PID.TID 0000.0001) %MON dynstat_vvel_sd              =   8.6106476898769E-02
(PID.TID 0000.0001) %MON dynstat_vvel_del2            =   1.7742928229824E-06
(PID.TID 0000.0001) %MON dynstat_wvel_max             =   4.9588045184180E-02
(PID.TID 0000.0001) %MON dynstat_wvel_min             =  -3.5160881504897E-02
(PID.TID 0000.0001) %MON dynstat_wvel_mean            =  -3.4508225499812E-05
(PID.TID 0000.0001) %MON dynstat_wvel_sd              =   1.6402237770417E-03
(PID.TID 0000.0001) %MON dynstat_wvel_del2            =   9.6510621773876E-08
(PID.TID 0000.0001) %MON dynstat_theta_max            =   2.4967554050851E+01
(PID.TID 0000.0001) %MON dynstat_theta_min            =  -2.5886810979728E+00
(PID.TID 0000.0001) %MON dynstat_theta_mean           =   5.5832676625971E+00
(PID.TID 0000.0001) %MON dynstat_theta_sd             =   4.6773781542871E+00
(PID.TID 0000.0001) %MON dynstat_theta_del2           =   7.4623117272280E-06
(PID.TID 0000.0001) %MON dynstat_salt_max             =   8.9679632627001E+01
(PID.TID 0000.0001) %MON dynstat_salt_min             =   2.0152011075686E+00
(PID.TID 0000.0001) %MON dynstat_salt_mean            =   3.5191401875880E+01
(PID.TID 0000.0001) %MON dynstat_salt_sd              =   4.5286862073059E-01
(PID.TID 0000.0001) %MON dynstat_salt_del2            =   1.4922132033642E-06
(PID.TID 0000.0001) %MON dynstat_sst_max              =   2.4948823994286E+01
(PID.TID 0000.0001) %MON dynstat_sst_min              =  -2.5886810979728E+00
(PID.TID 0000.0001) %MON dynstat_sst_mean             =   1.7723578417420E+01
(PID.TID 0000.0001) %MON dynstat_sst_sd               =   3.4053060462411E+00
(PID.TID 0000.0001) %MON dynstat_sst_del2             =   9.8142406515738E-05
(PID.TID 0000.0001) %MON dynstat_sss_max              =   8.9675658009497E+01
(PID.TID 0000.0001) %MON dynstat_sss_min              =   2.0152011075686E+00
(PID.TID 0000.0001) %MON dynstat_sss_mean             =   3.6425751282437E+01
(PID.TID 0000.0001) %MON dynstat_sss_sd               =   4.5235137222151E-01
(PID.TID 0000.0001) %MON dynstat_sss_del2             =   1.8965395963033E-05
(PID.TID 0000.0001) %MON forcing_qnet_max             =   1.4159997684907E+03
(PID.TID 0000.0001) %MON forcing_qnet_min             =  -2.6113174453663E+02
(PID.TID 0000.0001) %MON forcing_qnet_mean            =   2.3377993009707E+02
(PID.TID 0000.0001) %MON forcing_qnet_sd              =   1.7441985330455E+02
(PID.TID 0000.0001) %MON forcing_qnet_del2            =   4.8764147926944E-03
(PID.TID 0000.0001) %MON forcing_qsw_max              =   0.0000000000000E+00
(PID.TID 0000.0001) %MON forcing_qsw_min              =   0.0000000000000E+00
(PID.TID 0000.0001) %MON forcing_qsw_mean             =   0.0000000000000E+00
(PID.TID 0000.0001) %MON forcing_qsw_sd               =   0.0000000000000E+00
(PID.TID 0000.0001) %MON forcing_qsw_del2             =   0.0000000000000E+00
(PID.TID 0000.0001) %MON forcing_empmr_max            =   3.4738971423093E-04
(PID.TID 0000.0001) %MON forcing_empmr_min            =  -1.6640819056680E-03
(PID.TID 0000.0001) %MON forcing_empmr_mean           =  -7.0925643778000E-06
(PID.TID 0000.0001) %MON forcing_empmr_sd             =   1.6240310821335E-04
(PID.TID 0000.0001) %MON forcing_empmr_del2           =   1.5410026286637E-09
(PID.TID 0000.0001) %MON forcing_fu_max               =   1.2096480336539E+00
(PID.TID 0000.0001) %MON forcing_fu_min               =  -2.6311004361238E-01
(PID.TID 0000.0001) %MON forcing_fu_mean              =   1.2857930581210E-01
(PID.TID 0000.0001) %MON forcing_fu_sd                =   1.7353834402254E-01
(PID.TID 0000.0001) %MON forcing_fu_del2              =   9.3174233878207E-07
(PID.TID 0000.0001) %MON forcing_fv_max               =   7.0117603812466E-01
(PID.TID 0000.0001) %MON forcing_fv_min               =  -3.2976871526672E-01
(PID.TID 0000.0001) %MON forcing_fv_mean              =   2.4966760354609E-02
(PID.TID 0000.0001) %MON forcing_fv_sd                =   1.2112684924639E-01
(PID.TID 0000.0001) %MON forcing_fv_del2              =   7.1495013589682E-07
(PID.TID 0000.0001) %MON trAdv_CFL_u_max              =   9.7546546701977E-02
(PID.TID 0000.0001) %MON trAdv_CFL_v_max              =   1.0068090322944E-01
(PID.TID 0000.0001) %MON trAdv_CFL_w_max              =   4.0139270796066E-01
(PID.TID 0000.0001) %MON advcfl_uvel_max              =   9.7546546164620E-02
(PID.TID 0000.0001) %MON advcfl_vvel_max              =   1.0069295953612E-01
(PID.TID 0000.0001) %MON advcfl_wvel_max              =   3.9574963917832E-01
(PID.TID 0000.0001) %MON advcfl_W_hf_max              =   4.0139270796066E-01
(PID.TID 0000.0001) %MON pe_b_mean                    =  -2.6459229603259E-04
(PID.TID 0000.0001) %MON ke_max                       =   4.2880067471453E+00
(PID.TID 0000.0001) %MON ke_mean                      =   8.1351058618913E-03
(PID.TID 0000.0001) %MON ke_vol                       =   4.6123795034297E+16
(PID.TID 0000.0001) %MON vort_r_min                   =  -1.9024560544764E-03
(PID.TID 0000.0001) %MON vort_r_max                   =   1.6946699076094E-03
(PID.TID 0000.0001) %MON vort_a_mean                  =   8.2145893969964E-05
(PID.TID 0000.0001) %MON vort_a_sd                    =   1.4010013272109E-05
(PID.TID 0000.0001) %MON vort_p_mean                  =   8.4437924476446E-05
(PID.TID 0000.0001) %MON vort_p_sd                    =   3.4058663489030E-05
(PID.TID 0000.0001) %MON surfExpan_theta_mean         =  -9.3722710665459E-04
(PID.TID 0000.0001) %MON surfExpan_salt_mean          =  -2.0285389239768E-03
(PID.TID 0000.0001) // =======================================================
(PID.TID 0000.0001) // End MONITOR dynamic field statistics
(PID.TID 0000.0001) // =======================================================
(PID.TID 0000.0001) // =======================================================
(PID.TID 0000.0001) // Begin OBCS MONITOR field statistics
(PID.TID 0000.0001) // =======================================================
(PID.TID 0000.0001) %MON obc_E_uVel_max               =   8.4004334977665E-01
(PID.TID 0000.0001) %MON obc_E_uVel_min               =   3.8861168682700E-01
(PID.TID 0000.0001) %MON obc_E_uVel_mean              =   6.0235784401826E-01
(PID.TID 0000.0001) %MON obc_E_uVel_sd                =   9.9971996068356E-02
(PID.TID 0000.0001) %MON obc_E_uVel_Int               =   4.1107615465948E+06
(PID.TID 0000.0001) %MON obc_N_vVel_max               =   1.9599683308602E-01
(PID.TID 0000.0001) %MON obc_N_vVel_min               =  -8.4708744470309E-01
(PID.TID 0000.0001) %MON obc_N_vVel_mean              =   4.8958327383002E-03
(PID.TID 0000.0001) %MON obc_N_vVel_sd                =   3.8748177991163E-02
(PID.TID 0000.0001) %MON obc_N_vVel_Int               =   6.9861793706554E+07
(PID.TID 0000.0001) %MON obc_S_vVel_max               =   1.3283871370636E+00
(PID.TID 0000.0001) %MON obc_S_vVel_min               =  -1.7379824099139E-01
(PID.TID 0000.0001) %MON obc_S_vVel_mean              =  -1.8402464853359E-02
(PID.TID 0000.0001) %MON obc_S_vVel_sd                =   3.1525988998709E-02
(PID.TID 0000.0001) %MON obc_S_vVel_Int               =  -5.5957918899746E+08
(PID.TID 0000.0001) %MON obc_E_theta_max              =   1.5981519699097E+01
(PID.TID 0000.0001) %MON obc_E_theta_min              =   1.3104037284851E+01
(PID.TID 0000.0001) %MON obc_E_theta_mean             =   1.4974089986960E+01
(PID.TID 0000.0001) %MON obc_E_theta_sd               =   6.0075505804650E-01
(PID.TID 0000.0001) %MON obc_N_theta_max              =   1.5721092224121E+01
(PID.TID 0000.0001) %MON obc_N_theta_min              =   9.7373789548874E-01
(PID.TID 0000.0001) %MON obc_N_theta_mean             =   5.3443110148828E+00
(PID.TID 0000.0001) %MON obc_N_theta_sd               =   3.5834807335781E+00
(PID.TID 0000.0001) %MON obc_S_theta_max              =   2.4979528427124E+01
(PID.TID 0000.0001) %MON obc_S_theta_min              =   1.5124862194061E+00
(PID.TID 0000.0001) %MON obc_S_theta_mean             =   5.4273114502690E+00
(PID.TID 0000.0001) %MON obc_S_theta_sd               =   5.1694562801555E+00
(PID.TID 0000.0001) %MON obc_E_salt_max               =   3.8703720092773E+01
(PID.TID 0000.0001) %MON obc_E_salt_min               =   3.6289142608643E+01
(PID.TID 0000.0001) %MON obc_E_salt_mean              =   3.6643778075730E+01
(PID.TID 0000.0001) %MON obc_E_salt_sd                =   5.5037722650442E-01
(PID.TID 0000.0001) %MON obc_N_salt_max               =   3.6066974639893E+01
(PID.TID 0000.0001) %MON obc_N_salt_min               =   3.2878395080566E+01
(PID.TID 0000.0001) %MON obc_N_salt_mean              =   3.5117165924185E+01
(PID.TID 0000.0001) %MON obc_N_salt_sd                =   3.1541903364831E-01
(PID.TID 0000.0001) %MON obc_S_salt_max               =   3.7600940704346E+01
(PID.TID 0000.0001) %MON obc_S_salt_min               =   3.4853485107422E+01
(PID.TID 0000.0001) %MON obc_S_salt_mean              =   3.5185630803177E+01
(PID.TID 0000.0001) %MON obc_S_salt_sd                =   4.9502018312198E-01
(PID.TID 0000.0001) // =======================================================
(PID.TID 0000.0001) // End OBCS MONITOR field statistics
(PID.TID 0000.0001) // =======================================================
(PID.TID 0000.0001) // =======================================================
(PID.TID 0000.0001) // Begin MONITOR ptracer field statistics
(PID.TID 0000.0001) // =======================================================
(PID.TID 0000.0001) %MON trcstat_ptracer01_max        =   0.0000000000000E+00
(PID.TID 0000.0001) %MON trcstat_ptracer01_min        =   0.0000000000000E+00
(PID.TID 0000.0001) %MON trcstat_ptracer01_mean       =   0.0000000000000E+00
(PID.TID 0000.0001) %MON trcstat_ptracer01_sd         =   0.0000000000000E+00
(PID.TID 0000.0001) %MON trcstat_ptracer01_del2       =   0.0000000000000E+00
(PID.TID 0000.0001) %MON trcstat_ptracer02_max        =   0.0000000000000E+00
(PID.TID 0000.0001) %MON trcstat_ptracer02_min        =   0.0000000000000E+00
(PID.TID 0000.0001) %MON trcstat_ptracer02_mean       =   0.0000000000000E+00
(PID.TID 0000.0001) %MON trcstat_ptracer02_sd         =   0.0000000000000E+00
(PID.TID 0000.0001) %MON trcstat_ptracer02_del2       =   0.0000000000000E+00
(PID.TID 0000.0001) // =======================================================
(PID.TID 0000.0001) // End MONITOR ptracer field statistics
(PID.TID 0000.0001) // =======================================================
(PID.TID 0000.0001) // =======================================================
(PID.TID 0000.0001) // Begin MONITOR EXF statistics
(PID.TID 0000.0001) // =======================================================
(PID.TID 0000.0001) %MON exf_tsnumber                 =              15811425
(PID.TID 0000.0001) %MON exf_time_sec                 =   1.2649140000000E+09
(PID.TID 0000.0001) %MON exf_ustress_max              =   1.2134006715719E+00
(PID.TID 0000.0001) %MON exf_ustress_min              =  -2.6499581227999E-01
(PID.TID 0000.0001) %MON exf_ustress_mean             =   1.2866454785046E-01
(PID.TID 0000.0001) %MON exf_ustress_sd               =   1.7374161451856E-01
(PID.TID 0000.0001) %MON exf_ustress_del2             =   1.0116265329975E-06
(PID.TID 0000.0001) %MON exf_vstress_max              =   7.0672893367145E-01
(PID.TID 0000.0001) %MON exf_vstress_min              =  -3.3100474590646E-01
(PID.TID 0000.0001) %MON exf_vstress_mean             =   2.4947396585830E-02
(PID.TID 0000.0001) %MON exf_vstress_sd               =   1.2139073340218E-01
(PID.TID 0000.0001) %MON exf_vstress_del2             =   7.9336285525437E-07
(PID.TID 0000.0001) %MON exf_hflux_max                =   1.3828114491623E+03
(PID.TID 0000.0001) %MON exf_hflux_min                =  -2.2669831681716E+02
(PID.TID 0000.0001) %MON exf_hflux_mean               =   2.3363653341115E+02
(PID.TID 0000.0001) %MON exf_hflux_sd                 =   1.7027095957703E+02
(PID.TID 0000.0001) %MON exf_hflux_del2               =   8.8297104329397E-02
(PID.TID 0000.0001) %MON exf_sflux_max                =   3.4742379815723E-07
(PID.TID 0000.0001) %MON exf_sflux_min                =  -1.6692702560526E-06
(PID.TID 0000.0001) %MON exf_sflux_mean               =  -7.1015424122877E-09
(PID.TID 0000.0001) %MON exf_sflux_sd                 =   1.6255285630770E-07
(PID.TID 0000.0001) %MON exf_sflux_del2               =   5.0667359040649E-11
(PID.TID 0000.0001) %MON exf_uwind_max                =   2.2189490882629E+01
(PID.TID 0000.0001) %MON exf_uwind_min                =  -1.2069205649751E+01
(PID.TID 0000.0001) %MON exf_uwind_mean               =   5.7639684173590E+00
(PID.TID 0000.0001) %MON exf_uwind_sd                 =   6.1494678248560E+00
(PID.TID 0000.0001) %MON exf_uwind_del2               =   2.6173686546084E-03
(PID.TID 0000.0001) %MON exf_vwind_max                =   1.8111784467659E+01
(PID.TID 0000.0001) %MON exf_vwind_min                =  -1.2505163792720E+01
(PID.TID 0000.0001) %MON exf_vwind_mean               =   9.8552413642625E-01
(PID.TID 0000.0001) %MON exf_vwind_sd                 =   5.9584029731878E+00
(PID.TID 0000.0001) %MON exf_vwind_del2               =   1.8452059230158E-03
(PID.TID 0000.0001) %MON exf_wspeed_max               =   2.2559164372022E+01
(PID.TID 0000.0001) %MON exf_wspeed_min               =   1.0177110822320E-02
(PID.TID 0000.0001) %MON exf_wspeed_mean              =   9.4494485045031E+00
(PID.TID 0000.0001) %MON exf_wspeed_sd                =   4.2686102211808E+00
(PID.TID 0000.0001) %MON exf_wspeed_del2              =   3.2021524820705E-03
(PID.TID 0000.0001) %MON exf_atemp_max                =   2.9673776034041E+02
(PID.TID 0000.0001) %MON exf_atemp_min                =   2.6918433480037E+02
(PID.TID 0000.0001) %MON exf_atemp_mean               =   2.8912141580466E+02
(PID.TID 0000.0001) %MON exf_atemp_sd                 =   4.7428664884890E+00
(PID.TID 0000.0001) %MON exf_atemp_del2               =   5.0479375228126E-03
(PID.TID 0000.0001) %MON exf_aqh_max                  =   1.5036227372846E-02
(PID.TID 0000.0001) %MON exf_aqh_min                  =   1.6420577947967E-03
(PID.TID 0000.0001) %MON exf_aqh_mean                 =   8.6325511946429E-03
(PID.TID 0000.0001) %MON exf_aqh_sd                   =   3.0673697590840E-03
(PID.TID 0000.0001) %MON exf_aqh_del2                 =   2.7832872164518E-06
(PID.TID 0000.0001) %MON exf_lwflux_max               =   1.6252198648259E+02
(PID.TID 0000.0001) %MON exf_lwflux_min               =  -2.9122663085863E-01
(PID.TID 0000.0001) %MON exf_lwflux_mean              =   6.0975046223564E+01
(PID.TID 0000.0001) %MON exf_lwflux_sd                =   2.7107713573623E+01
(PID.TID 0000.0001) %MON exf_lwflux_del2              =   2.0282571946233E-02
(PID.TID 0000.0001) %MON exf_evap_max                 =   3.6399709972173E-07
(PID.TID 0000.0001) %MON exf_evap_min                 =  -6.6883898540493E-08
(PID.TID 0000.0001) %MON exf_evap_mean                =   5.9188922701224E-08
(PID.TID 0000.0001) %MON exf_evap_sd                  =   4.7333164108499E-08
(PID.TID 0000.0001) %MON exf_evap_del2                =   2.3146889251269E-11
(PID.TID 0000.0001) %MON exf_precip_max               =   1.6763571887265E-06
(PID.TID 0000.0001) %MON exf_precip_min               =   0.0000000000000E+00
(PID.TID 0000.0001) %MON exf_precip_mean              =   6.4683420479042E-08
(PID.TID 0000.0001) %MON exf_precip_sd                =   1.5537598634643E-07
(PID.TID 0000.0001) %MON exf_precip_del2              =   5.2553690492030E-11
(PID.TID 0000.0001) %MON exf_swflux_max               =   0.0000000000000E+00
(PID.TID 0000.0001) %MON exf_swflux_min               =   0.0000000000000E+00
(PID.TID 0000.0001) %MON exf_swflux_mean              =   0.0000000000000E+00
(PID.TID 0000.0001) %MON exf_swflux_sd                =   0.0000000000000E+00
(PID.TID 0000.0001) %MON exf_swflux_del2              =   0.0000000000000E+00
(PID.TID 0000.0001) %MON exf_swdown_max               =   0.0000000000000E+00
(PID.TID 0000.0001) %MON exf_swdown_min               =   0.0000000000000E+00
(PID.TID 0000.0001) %MON exf_swdown_mean              =   0.0000000000000E+00
(PID.TID 0000.0001) %MON exf_swdown_sd                =   0.0000000000000E+00
(PID.TID 0000.0001) %MON exf_swdown_del2              =   0.0000000000000E+00
(PID.TID 0000.0001) %MON exf_lwdown_max               =   4.1279527859102E+02
(PID.TID 0000.0001) %MON exf_lwdown_min               =   1.9590432058711E+02
(PID.TID 0000.0001) %MON exf_lwdown_mean              =   3.4335230791556E+02
(PID.TID 0000.0001) %MON exf_lwdown_sd                =   3.2614718719855E+01
(PID.TID 0000.0001) %MON exf_lwdown_del2              =   1.0532645351719E-01
(PID.TID 0000.0001) %MON exf_apressure_max            =   1.0266860932116E+05
(PID.TID 0000.0001) %MON exf_apressure_min            =   9.8902473476648E+04
(PID.TID 0000.0001) %MON exf_apressure_mean           =   1.0154546906076E+05
(PID.TID 0000.0001) %MON exf_apressure_sd             =   7.5844292931161E+02
(PID.TID 0000.0001) %MON exf_apressure_del2           =   3.1028846626152E+01
(PID.TID 0000.0001) %MON exf_runoff_max               =   4.6633690723924E-08
(PID.TID 0000.0001) %MON exf_runoff_min               =   0.0000000000000E+00
(PID.TID 0000.0001) %MON exf_runoff_mean              =   1.6070446344693E-09
(PID.TID 0000.0001) %MON exf_runoff_sd                =   5.4409705936606E-09
(PID.TID 0000.0001) %MON exf_runoff_del2              =   1.7602788524736E-12
(PID.TID 0000.0001) // =======================================================
(PID.TID 0000.0001) // End MONITOR EXF statistics
(PID.TID 0000.0001) // =======================================================
 cg2d: Sum(rhs),rhsMax =   5.31915564380663E+03  8.75825738525641E-02
 cg2d: Sum(rhs),rhsMax =   6.49116153047433E+03  8.80990882440512E-02
 cg2d: Sum(rhs),rhsMax =   7.65920200651367E+03  8.86069718702351E-02
 cg2d: Sum(rhs),rhsMax =   8.82312190654276E+03  8.91058791039937E-02
 cg2d: Sum(rhs),rhsMax =   9.98276656548057E+03  8.95954741498716E-02
 cg2d: Sum(rhs),rhsMax =   1.11379818394227E+04  9.00754486360679E-02
 cg2d: Sum(rhs),rhsMax =   1.22886141264989E+04  9.05454691970450E-02
 cg2d: Sum(rhs),rhsMax =   1.34345103876265E+04  9.10051765605778E-02
 cg2d: Sum(rhs),rhsMax =   1.45755181672363E+04  9.14542165946626E-02
 cg2d: Sum(rhs),rhsMax =   1.57114856138897E+04  9.18922437731402E-02
 cg2d: Sum(rhs),rhsMax =   1.68422615008655E+04  9.23189175386417E-02
 cg2d: Sum(rhs),rhsMax =   1.79676952466250E+04  9.27467640789070E-02
 cg2d: Sum(rhs),rhsMax =   1.90876369352448E+04  9.31637806471262E-02
 cg2d: Sum(rhs),rhsMax =   2.02019373367226E+04  9.35684821010308E-02
 cg2d: Sum(rhs),rhsMax =   2.13104479272433E+04  9.39605638394746E-02
 cg2d: Sum(rhs),rhsMax =   2.24130209093087E+04  9.43397308451712E-02
 cg2d: Sum(rhs),rhsMax =   2.35095092318289E+04  9.47057005522021E-02
 cg2d: Sum(rhs),rhsMax =   2.45997666100673E+04  9.50582063120874E-02
 cg2d: Sum(rhs),rhsMax =   2.56836475455372E+04  9.53970005881006E-02
 cg2d: Sum(rhs),rhsMax =   2.67610073457533E+04  9.57218570288897E-02
 cg2d: Sum(rhs),rhsMax =   2.78317021439263E+04  9.60325712358677E-02
 cg2d: Sum(rhs),rhsMax =   2.88955889185016E+04  9.63289608876618E-02
 cg2d: Sum(rhs),rhsMax =   2.99525255126443E+04  9.66108652399370E-02
 cg2d: Sum(rhs),rhsMax =   3.10023706535556E+04  9.68820421159694E-02
 cg2d: Sum(rhs),rhsMax =   3.20449839717320E+04  9.71392877113929E-02
 cg2d: Sum(rhs),rhsMax =   3.30802260200490E+04  9.73814257145021E-02
 cg2d: Sum(rhs),rhsMax =   3.41079582927840E+04  9.76083413375876E-02
 cg2d: Sum(rhs),rhsMax =   3.51280432444547E+04  9.78199358843795E-02
 cg2d: Sum(rhs),rhsMax =   3.61403443085971E+04  9.80161236306701E-02
 cg2d: Sum(rhs),rhsMax =   3.71447259163442E+04  9.81968301060953E-02
 cg2d: Sum(rhs),rhsMax =   3.81410535149489E+04  9.83619904551016E-02
 cg2d: Sum(rhs),rhsMax =   3.91291935860918E+04  9.85115478114839E-02
 cg2d: Sum(rhs),rhsMax =   4.01090136641362E+04  9.86454530102573E-02
 cg2d: Sum(rhs),rhsMax =   4.10803823541582E+04  9.87636639496674E-02
 cg2d: Sum(rhs),rhsMax =   4.20431693499197E+04  9.88661449104132E-02
 cg2d: Sum(rhs),rhsMax =   4.29972454516099E+04  9.89528663603767E-02
 cg2d: Sum(rhs),rhsMax =   4.39424825835282E+04  9.90238056399063E-02
 cg2d: Sum(rhs),rhsMax =   4.48787538115236E+04  9.90789471886359E-02
 cg2d: Sum(rhs),rhsMax =   4.58059333603744E+04  9.91182893214505E-02
 cg2d: Sum(rhs),rhsMax =   4.67238966309223E+04  9.91418380229580E-02
 cg2d: Sum(rhs),rhsMax =   4.76325202171366E+04  9.91496120273716E-02
 cg2d: Sum(rhs),rhsMax =   4.85316819229245E+04  9.91416421569842E-02
 cg2d: Sum(rhs),rhsMax =   4.94212607788807E+04  9.91179754550255E-02
 cg2d: Sum(rhs),rhsMax =   5.03011370587607E+04  9.90786784704728E-02
 cg2d: Sum(rhs),rhsMax =   5.11711922958962E+04  9.90238391071839E-02
(PID.TID 0000.0001)      cg2d_init_res =   9.88262947733208E-01
(PID.TID 0000.0001)      cg2d_iters(min,last) =      -1     153
(PID.TID 0000.0001)      cg2d_last_res =   1.97451160773917E-11
(PID.TID 0000.0001) // =======================================================
(PID.TID 0000.0001) // Begin MONITOR dynamic field statistics
(PID.TID 0000.0001) // =======================================================
(PID.TID 0000.0001) %MON time_tsnumber                =              15811470
(PID.TID 0000.0001) %MON time_secondsf                =   1.2649176000000E+09
(PID.TID 0000.0001) %MON dynstat_eta_max              =   7.8904970600976E-01
(PID.TID 0000.0001) %MON dynstat_eta_min              =  -1.5387915248880E+00
(PID.TID 0000.0001) %MON dynstat_eta_mean             =  -1.9338705763870E-01
(PID.TID 0000.0001) %MON dynstat_eta_sd               =   2.9405216471463E-01
(PID.TID 0000.0001) %MON dynstat_eta_del2             =   1.0999532420562E-06
(PID.TID 0000.0001) %MON dynstat_uvel_max             =   2.7264487905431E+00
(PID.TID 0000.0001) %MON dynstat_uvel_min             =  -2.6548055275180E+00
(PID.TID 0000.0001) %MON dynstat_uvel_mean            =  -9.4783789164244E-03
(PID.TID 0000.0001) %MON dynstat_uvel_sd              =   9.4155875477737E-02
(PID.TID 0000.0001) %MON dynstat_uvel_del2            =   1.8798512613897E-06
(PID.TID 0000.0001) %MON dynstat_vvel_max             =   2.8315447156002E+00
(PID.TID 0000.0001) %MON dynstat_vvel_min             =  -2.9065756943026E+00
(PID.TID 0000.0001) %MON dynstat_vvel_mean            =  -1.1304936004044E-02
(PID.TID 0000.0001) %MON dynstat_vvel_sd              =   8.6134905581226E-02
(PID.TID 0000.0001) %MON dynstat_vvel_del2            =   1.7727714391488E-06
(PID.TID 0000.0001) %MON dynstat_wvel_max             =   5.1814688650052E-02
(PID.TID 0000.0001) %MON dynstat_wvel_min             =  -3.1995991089796E-02
(PID.TID 0000.0001) %MON dynstat_wvel_mean            =  -2.6198062821607E-05
(PID.TID 0000.0001) %MON dynstat_wvel_sd              =   1.6394017034071E-03
(PID.TID 0000.0001) %MON dynstat_wvel_del2            =   9.6727653171472E-08
(PID.TID 0000.0001) %MON dynstat_theta_max            =   2.4967309712385E+01
(PID.TID 0000.0001) %MON dynstat_theta_min            =  -2.6129275540018E+00
(PID.TID 0000.0001) %MON dynstat_theta_mean           =   5.5837053373892E+00
(PID.TID 0000.0001) %MON dynstat_theta_sd             =   4.6777425101483E+00
(PID.TID 0000.0001) %MON dynstat_theta_del2           =   7.4600612632507E-06
(PID.TID 0000.0001) %MON dynstat_salt_max             =   8.9677370973478E+01
(PID.TID 0000.0001) %MON dynstat_salt_min             =   2.0152187027598E+00
(PID.TID 0000.0001) %MON dynstat_salt_mean            =   3.5191452609251E+01
(PID.TID 0000.0001) %MON dynstat_salt_sd              =   4.5293100412325E-01
(PID.TID 0000.0001) %MON dynstat_salt_del2            =   1.4927467542216E-06
(PID.TID 0000.0001) %MON dynstat_sst_max              =   2.4947915307159E+01
(PID.TID 0000.0001) %MON dynstat_sst_min              =  -2.6129275540018E+00
(PID.TID 0000.0001) %MON dynstat_sst_mean             =   1.7719910976536E+01
(PID.TID 0000.0001) %MON dynstat_sst_sd               =   3.4047158968699E+00
(PID.TID 0000.0001) %MON dynstat_sst_del2             =   9.7956931162717E-05
(PID.TID 0000.0001) %MON dynstat_sss_max              =   8.9671910487956E+01
(PID.TID 0000.0001) %MON dynstat_sss_min              =   2.0152187027598E+00
(PID.TID 0000.0001) %MON dynstat_sss_mean             =   3.6425622450663E+01
(PID.TID 0000.0001) %MON dynstat_sss_sd               =   4.5226010274472E-01
(PID.TID 0000.0001) %MON dynstat_sss_del2             =   1.8892202700370E-05
(PID.TID 0000.0001) %MON forcing_qnet_max             =   1.4466321880218E+03
(PID.TID 0000.0001) %MON forcing_qnet_min             =  -2.7090839914505E+02
(PID.TID 0000.0001) %MON forcing_qnet_mean            =   2.3825672260225E+02
(PID.TID 0000.0001) %MON forcing_qnet_sd              =   1.8445928903718E+02
(PID.TID 0000.0001) %MON forcing_qnet_del2            =   5.0203042820499E-03
(PID.TID 0000.0001) %MON forcing_qsw_max              =   0.0000000000000E+00
(PID.TID 0000.0001) %MON forcing_qsw_min              =   0.0000000000000E+00
(PID.TID 0000.0001) %MON forcing_qsw_mean             =   0.0000000000000E+00
(PID.TID 0000.0001) %MON forcing_qsw_sd               =   0.0000000000000E+00
(PID.TID 0000.0001) %MON forcing_qsw_del2             =   0.0000000000000E+00
(PID.TID 0000.0001) %MON forcing_empmr_max            =   3.5504636019854E-04
(PID.TID 0000.0001) %MON forcing_empmr_min            =  -1.3681924835656E-03
(PID.TID 0000.0001) %MON forcing_empmr_mean           =  -5.4681235395058E-06
(PID.TID 0000.0001) %MON forcing_empmr_sd             =   1.5730017223769E-04
(PID.TID 0000.0001) %MON forcing_empmr_del2           =   1.4830711776068E-09
(PID.TID 0000.0001) %MON forcing_fu_max               =   1.2876837995549E+00
(PID.TID 0000.0001) %MON forcing_fu_min               =  -3.2948033346250E-01
(PID.TID 0000.0001) %MON forcing_fu_mean              =   1.3193633982515E-01
(PID.TID 0000.0001) %MON forcing_fu_sd                =   1.7936682501296E-01
(PID.TID 0000.0001) %MON forcing_fu_del2              =   9.4428559376289E-07
(PID.TID 0000.0001) %MON forcing_fv_max               =   7.2977616262023E-01
(PID.TID 0000.0001) %MON forcing_fv_min               =  -3.7240219827146E-01
(PID.TID 0000.0001) %MON forcing_fv_mean              =   2.2836677012302E-02
(PID.TID 0000.0001) %MON forcing_fv_sd                =   1.2715036460915E-01
(PID.TID 0000.0001) %MON forcing_fv_del2              =   7.3622011667658E-07
(PID.TID 0000.0001) %MON trAdv_CFL_u_max              =   9.2452039795087E-02
(PID.TID 0000.0001) %MON trAdv_CFL_v_max              =   1.0040324775846E-01
(PID.TID 0000.0001) %MON trAdv_CFL_w_max              =   3.6451824928754E-01
(PID.TID 0000.0001) %MON advcfl_uvel_max              =   9.2452039285789E-02
(PID.TID 0000.0001) %MON advcfl_vvel_max              =   1.0039129627259E-01
(PID.TID 0000.0001) %MON advcfl_wvel_max              =   3.5844294513274E-01
(PID.TID 0000.0001) %MON advcfl_W_hf_max              =   3.6451824928754E-01
(PID.TID 0000.0001) %MON pe_b_mean                    =  -4.5666676844886E-03
(PID.TID 0000.0001) %MON ke_max                       =   4.1928723571014E+00
(PID.TID 0000.0001) %MON ke_mean                      =   8.2065202770379E-03
(PID.TID 0000.0001) %MON ke_vol                       =   4.6123795034297E+16
(PID.TID 0000.0001) %MON vort_r_min                   =  -1.7078178649930E-03
(PID.TID 0000.0001) %MON vort_r_max                   =   1.5073783993681E-03
(PID.TID 0000.0001) %MON vort_a_mean                  =   8.2145893386550E-05
(PID.TID 0000.0001) %MON vort_a_sd                    =   1.4024910920596E-05
(PID.TID 0000.0001) %MON vort_p_mean                  =   8.4437923876754E-05
(PID.TID 0000.0001) %MON vort_p_sd                    =   3.4102999232913E-05
(PID.TID 0000.0001) %MON surfExpan_theta_mean         =  -6.6149833266899E-04
(PID.TID 0000.0001) %MON surfExpan_salt_mean          =  -1.4947910603584E-03
(PID.TID 0000.0001) // =======================================================
(PID.TID 0000.0001) // End MONITOR dynamic field statistics
(PID.TID 0000.0001) // =======================================================
(PID.TID 0000.0001) // =======================================================
(PID.TID 0000.0001) // Begin OBCS MONITOR field statistics
(PID.TID 0000.0001) // =======================================================
(PID.TID 0000.0001) %MON obc_E_uVel_max               =   7.0468128659673E-01
(PID.TID 0000.0001) %MON obc_E_uVel_min               =   2.6750974472843E-01
(PID.TID 0000.0001) %MON obc_E_uVel_mean              =   4.8200556435514E-01
(PID.TID 0000.0001) %MON obc_E_uVel_sd                =   9.6146833348463E-02
(PID.TID 0000.0001) %MON obc_E_uVel_Int               =   3.2894233201614E+06
(PID.TID 0000.0001) %MON obc_N_vVel_max               =   1.9063049830534E-01
(PID.TID 0000.0001) %MON obc_N_vVel_min               =  -1.0176683521443E+00
(PID.TID 0000.0001) %MON obc_N_vVel_mean              =  -2.0007318668020E-03
(PID.TID 0000.0001) %MON obc_N_vVel_sd                =   3.8753498717269E-02
(PID.TID 0000.0001) %MON obc_N_vVel_Int               =  -2.8549732887561E+07
(PID.TID 0000.0001) %MON obc_S_vVel_max               =   1.3475076858226E+00
(PID.TID 0000.0001) %MON obc_S_vVel_min               =  -1.7680742830369E-01
(PID.TID 0000.0001) %MON obc_S_vVel_mean              =  -1.6200109888070E-02
(PID.TID 0000.0001) %MON obc_S_vVel_sd                =   3.2242897647546E-02
(PID.TID 0000.0001) %MON obc_S_vVel_Int               =  -4.9261033372827E+08
(PID.TID 0000.0001) %MON obc_E_theta_max              =   1.5981519699097E+01
(PID.TID 0000.0001) %MON obc_E_theta_min              =   1.3104037284851E+01
(PID.TID 0000.0001) %MON obc_E_theta_mean             =   1.4974089986960E+01
(PID.TID 0000.0001) %MON obc_E_theta_sd               =   6.0075505804650E-01
(PID.TID 0000.0001) %MON obc_N_theta_max              =   1.5721092224121E+01
(PID.TID 0000.0001) %MON obc_N_theta_min              =   9.7373789548874E-01
(PID.TID 0000.0001) %MON obc_N_theta_mean             =   5.3443110148828E+00
(PID.TID 0000.0001) %MON obc_N_theta_sd               =   3.5834807335781E+00
(PID.TID 0000.0001) %MON obc_S_theta_max              =   2.4979528427124E+01
(PID.TID 0000.0001) %MON obc_S_theta_min              =   1.5124862194061E+00
(PID.TID 0000.0001) %MON obc_S_theta_mean             =   5.4273114502690E+00
(PID.TID 0000.0001) %MON obc_S_theta_sd               =   5.1694562801555E+00
(PID.TID 0000.0001) %MON obc_E_salt_max               =   3.8703720092773E+01
(PID.TID 0000.0001) %MON obc_E_salt_min               =   3.6289142608643E+01
(PID.TID 0000.0001) %MON obc_E_salt_mean              =   3.6643778075730E+01
(PID.TID 0000.0001) %MON obc_E_salt_sd                =   5.5037722650442E-01
(PID.TID 0000.0001) %MON obc_N_salt_max               =   3.6066974639893E+01
(PID.TID 0000.0001) %MON obc_N_salt_min               =   3.2878395080566E+01
(PID.TID 0000.0001) %MON obc_N_salt_mean              =   3.5117165924185E+01
(PID.TID 0000.0001) %MON obc_N_salt_sd                =   3.1541903364831E-01
(PID.TID 0000.0001) %MON obc_S_salt_max               =   3.7600940704346E+01
(PID.TID 0000.0001) %MON obc_S_salt_min               =   3.4853485107422E+01
(PID.TID 0000.0001) %MON obc_S_salt_mean              =   3.5185630803177E+01
(PID.TID 0000.0001) %MON obc_S_salt_sd                =   4.9502018312198E-01
(PID.TID 0000.0001) // =======================================================
(PID.TID 0000.0001) // End OBCS MONITOR field statistics
(PID.TID 0000.0001) // =======================================================
(PID.TID 0000.0001) // =======================================================
(PID.TID 0000.0001) // Begin MONITOR ptracer field statistics
(PID.TID 0000.0001) // =======================================================
(PID.TID 0000.0001) %MON trcstat_ptracer01_max        =   0.0000000000000E+00
(PID.TID 0000.0001) %MON trcstat_ptracer01_min        =   0.0000000000000E+00
(PID.TID 0000.0001) %MON trcstat_ptracer01_mean       =   0.0000000000000E+00
(PID.TID 0000.0001) %MON trcstat_ptracer01_sd         =   0.0000000000000E+00
(PID.TID 0000.0001) %MON trcstat_ptracer01_del2       =   0.0000000000000E+00
(PID.TID 0000.0001) %MON trcstat_ptracer02_max        =   0.0000000000000E+00
(PID.TID 0000.0001) %MON trcstat_ptracer02_min        =   0.0000000000000E+00
(PID.TID 0000.0001) %MON trcstat_ptracer02_mean       =   0.0000000000000E+00
(PID.TID 0000.0001) %MON trcstat_ptracer02_sd         =   0.0000000000000E+00
(PID.TID 0000.0001) %MON trcstat_ptracer02_del2       =   0.0000000000000E+00
(PID.TID 0000.0001) // =======================================================
(PID.TID 0000.0001) // End MONITOR ptracer field statistics
(PID.TID 0000.0001) // =======================================================
(PID.TID 0000.0001) // =======================================================
(PID.TID 0000.0001) // Begin MONITOR EXF statistics
(PID.TID 0000.0001) // =======================================================
(PID.TID 0000.0001) %MON exf_tsnumber                 =              15811470
(PID.TID 0000.0001) %MON exf_time_sec                 =   1.2649176000000E+09
(PID.TID 0000.0001) %MON exf_ustress_max              =   1.2921592178586E+00
(PID.TID 0000.0001) %MON exf_ustress_min              =  -3.3236023183517E-01
(PID.TID 0000.0001) %MON exf_ustress_mean             =   1.3200364335036E-01
(PID.TID 0000.0001) %MON exf_ustress_sd               =   1.7956145380658E-01
(PID.TID 0000.0001) %MON exf_ustress_del2             =   1.0260947896297E-06
(PID.TID 0000.0001) %MON exf_vstress_max              =   7.3228642560413E-01
(PID.TID 0000.0001) %MON exf_vstress_min              =  -3.7215369118019E-01
(PID.TID 0000.0001) %MON exf_vstress_mean             =   2.2800076749811E-02
(PID.TID 0000.0001) %MON exf_vstress_sd               =   1.2741510579236E-01
(PID.TID 0000.0001) %MON exf_vstress_del2             =   8.1659482485558E-07
(PID.TID 0000.0001) %MON exf_hflux_max                =   1.4135903492049E+03
(PID.TID 0000.0001) %MON exf_hflux_min                =  -2.2942866942114E+02
(PID.TID 0000.0001) %MON exf_hflux_mean               =   2.3798603070515E+02
(PID.TID 0000.0001) %MON exf_hflux_sd                 =   1.8019053851119E+02
(PID.TID 0000.0001) %MON exf_hflux_del2               =   9.1117084920775E-02
(PID.TID 0000.0001) %MON exf_sflux_max                =   3.5516765961144E-07
(PID.TID 0000.0001) %MON exf_sflux_min                =  -1.3885497248608E-06
(PID.TID 0000.0001) %MON exf_sflux_mean               =  -5.3602121512980E-09
(PID.TID 0000.0001) %MON exf_sflux_sd                 =   1.5707067036407E-07
(PID.TID 0000.0001) %MON exf_sflux_del2               =   4.9010116100286E-11
(PID.TID 0000.0001) %MON exf_uwind_max                =   2.2649927107871E+01
(PID.TID 0000.0001) %MON exf_uwind_min                =  -1.3462592392980E+01
(PID.TID 0000.0001) %MON exf_uwind_mean               =   5.8154473229610E+00
(PID.TID 0000.0001) %MON exf_uwind_sd                 =   6.1999711821425E+00
(PID.TID 0000.0001) %MON exf_uwind_del2               =   2.6389971829742E-03
(PID.TID 0000.0001) %MON exf_vwind_max                =   1.7745435756858E+01
(PID.TID 0000.0001) %MON exf_vwind_min                =  -1.3198319268718E+01
(PID.TID 0000.0001) %MON exf_vwind_mean               =   9.2371255019836E-01
(PID.TID 0000.0001) %MON exf_vwind_sd                 =   6.1109756955461E+00
(PID.TID 0000.0001) %MON exf_vwind_del2               =   1.8888534567808E-03
(PID.TID 0000.0001) %MON exf_wspeed_max               =   2.3087993830658E+01
(PID.TID 0000.0001) %MON exf_wspeed_min               =   9.1757124677107E-03
(PID.TID 0000.0001) %MON exf_wspeed_mean              =   9.5853610768992E+00
(PID.TID 0000.0001) %MON exf_wspeed_sd                =   4.3101266893153E+00
(PID.TID 0000.0001) %MON exf_wspeed_del2              =   3.2450524282145E-03
(PID.TID 0000.0001) %MON exf_atemp_max                =   2.9672079997570E+02
(PID.TID 0000.0001) %MON exf_atemp_min                =   2.6887294875436E+02
(PID.TID 0000.0001) %MON exf_atemp_mean               =   2.8908705868269E+02
(PID.TID 0000.0001) %MON exf_atemp_sd                 =   4.7742756744596E+00
(PID.TID 0000.0001) %MON exf_atemp_del2               =   5.0410859974627E-03
(PID.TID 0000.0001) %MON exf_aqh_max                  =   1.5011902940058E-02
(PID.TID 0000.0001) %MON exf_aqh_min                  =   1.5691692706574E-03
(PID.TID 0000.0001) %MON exf_aqh_mean                 =   8.6404702288807E-03
(PID.TID 0000.0001) %MON exf_aqh_sd                   =   3.0500080079030E-03
(PID.TID 0000.0001) %MON exf_aqh_del2                 =   2.7844900038050E-06
(PID.TID 0000.0001) %MON exf_lwflux_max               =   1.5880504459951E+02
(PID.TID 0000.0001) %MON exf_lwflux_min               =  -1.8229148604002E+00
(PID.TID 0000.0001) %MON exf_lwflux_mean              =   6.1426475857154E+01
(PID.TID 0000.0001) %MON exf_lwflux_sd                =   2.7309471964139E+01
(PID.TID 0000.0001) %MON exf_lwflux_del2              =   2.0427929831492E-02
(PID.TID 0000.0001) %MON exf_evap_max                 =   3.7141709567414E-07
(PID.TID 0000.0001) %MON exf_evap_min                 =  -6.7420595372062E-08
(PID.TID 0000.0001) %MON exf_evap_mean                =   6.0218008391251E-08
(PID.TID 0000.0001) %MON exf_evap_sd                  =   4.9752311577554E-08
(PID.TID 0000.0001) %MON exf_evap_del2                =   2.3839457099433E-11
(PID.TID 0000.0001) %MON exf_precip_max               =   1.4829498925150E-06
(PID.TID 0000.0001) %MON exf_precip_min               =   0.0000000000000E+00
(PID.TID 0000.0001) %MON exf_precip_mean              =   6.3971175908079E-08
(PID.TID 0000.0001) %MON exf_precip_sd                =   1.4923415325835E-07
(PID.TID 0000.0001) %MON exf_precip_del2              =   5.0820944564561E-11
(PID.TID 0000.0001) %MON exf_swflux_max               =   0.0000000000000E+00
(PID.TID 0000.0001) %MON exf_swflux_min               =   0.0000000000000E+00
(PID.TID 0000.0001) %MON exf_swflux_mean              =   0.0000000000000E+00
(PID.TID 0000.0001) %MON exf_swflux_sd                =   0.0000000000000E+00
(PID.TID 0000.0001) %MON exf_swflux_del2              =   0.0000000000000E+00
(PID.TID 0000.0001) %MON exf_swdown_max               =   0.0000000000000E+00
(PID.TID 0000.0001) %MON exf_swdown_min               =   0.0000000000000E+00
(PID.TID 0000.0001) %MON exf_swdown_mean              =   0.0000000000000E+00
(PID.TID 0000.0001) %MON exf_swdown_sd                =   0.0000000000000E+00
(PID.TID 0000.0001) %MON exf_swdown_del2              =   0.0000000000000E+00
(PID.TID 0000.0001) %MON exf_lwdown_max               =   4.0879124470529E+02
(PID.TID 0000.0001) %MON exf_lwdown_min               =   1.9336322928947E+02
(PID.TID 0000.0001) %MON exf_lwdown_mean              =   3.4286631721737E+02
(PID.TID 0000.0001) %MON exf_lwdown_sd                =   3.2591188836394E+01
(PID.TID 0000.0001) %MON exf_lwdown_del2              =   1.0518649177565E-01
(PID.TID 0000.0001) %MON exf_apressure_max            =   1.0266700042497E+05
(PID.TID 0000.0001) %MON exf_apressure_min            =   9.8834395574818E+04
(PID.TID 0000.0001) %MON exf_apressure_mean           =   1.0151762961704E+05
(PID.TID 0000.0001) %MON exf_apressure_sd             =   7.7334840712421E+02
(PID.TID 0000.0001) %MON exf_apressure_del2           =   3.1020241317122E+01
(PID.TID 0000.0001) %MON exf_runoff_max               =   4.6633690723924E-08
(PID.TID 0000.0001) %MON exf_runoff_min               =   0.0000000000000E+00
(PID.TID 0000.0001) %MON exf_runoff_mean              =   1.6070446344693E-09
(PID.TID 0000.0001) %MON exf_runoff_sd                =   5.4409705936606E-09
(PID.TID 0000.0001) %MON exf_runoff_del2              =   1.7602788524736E-12
(PID.TID 0000.0001) // =======================================================
(PID.TID 0000.0001) // End MONITOR EXF statistics
(PID.TID 0000.0001) // =======================================================
 cg2d: Sum(rhs),rhsMax =   5.20313092993358E+04  9.89535684518739E-02
 cg2d: Sum(rhs),rhsMax =   5.28813721699107E+04  9.88680327817513E-02
 cg2d: Sum(rhs),rhsMax =   5.37212663160269E+04  9.87674166538584E-02
 cg2d: Sum(rhs),rhsMax =   5.45508784693824E+04  9.86519246915928E-02
 cg2d: Sum(rhs),rhsMax =   5.53700967003962E+04  9.85217852988008E-02
 cg2d: Sum(rhs),rhsMax =   5.61788104335621E+04  9.83772548293407E-02
 cg2d: Sum(rhs),rhsMax =   5.69769104625160E+04  9.82186214952607E-02
 cg2d: Sum(rhs),rhsMax =   5.77642889650122E+04  9.80462078811977E-02
 cg2d: Sum(rhs),rhsMax =   5.85408395176159E+04  9.78603724244103E-02
 cg2d: Sum(rhs),rhsMax =   5.93064571103022E+04  9.76615101767514E-02
 cg2d: Sum(rhs),rhsMax =   6.00610381607573E+04  9.74500529106353E-02
 cg2d: Sum(rhs),rhsMax =   6.08044805285904E+04  9.72264685626703E-02
 cg2d: Sum(rhs),rhsMax =   6.15366835292464E+04  9.69912600209162E-02
 cg2d: Sum(rhs),rhsMax =   6.22575479478132E+04  9.67449632170964E-02
 cg2d: Sum(rhs),rhsMax =   6.29669760525339E+04  9.64917819384932E-02
 cg2d: Sum(rhs),rhsMax =   6.36648716082113E+04  9.62331154381268E-02
 cg2d: Sum(rhs),rhsMax =   6.43511398893087E+04  9.59656303239237E-02
 cg2d: Sum(rhs),rhsMax =   6.50256876929391E+04  9.56899200421326E-02
 cg2d: Sum(rhs),rhsMax =   6.56884233515496E+04  9.54195704218950E-02
 cg2d: Sum(rhs),rhsMax =   6.63392567454905E+04  9.51549998117684E-02
 cg2d: Sum(rhs),rhsMax =   6.69780993152728E+04  9.48842232004283E-02
 cg2d: Sum(rhs),rhsMax =   6.76048640737101E+04  9.46076459593604E-02
 cg2d: Sum(rhs),rhsMax =   6.82194656177451E+04  9.43256790932512E-02
 cg2d: Sum(rhs),rhsMax =   6.88218201401500E+04  9.40387393388575E-02
 cg2d: Sum(rhs),rhsMax =   6.94118454409228E+04  9.37472481634298E-02
 cg2d: Sum(rhs),rhsMax =   6.99894609385384E+04  9.34516290806472E-02
 cg2d: Sum(rhs),rhsMax =   7.05545876809019E+04  9.31523059525128E-02
 cg2d: Sum(rhs),rhsMax =   7.11071483561528E+04  9.28496984408247E-02
 cg2d: Sum(rhs),rhsMax =   7.16470673031636E+04  9.25442166029936E-02
 cg2d: Sum(rhs),rhsMax =   7.21742705218864E+04  9.22362560782759E-02
 cg2d: Sum(rhs),rhsMax =   7.26886856834039E+04  9.19261930579108E-02
 cg2d: Sum(rhs),rhsMax =   7.31902421398057E+04  9.16143800013833E-02
 cg2d: Sum(rhs),rhsMax =   7.36788709337749E+04  9.13011402616886E-02
 cg2d: Sum(rhs),rhsMax =   7.41545048080068E+04  9.09867640991777E-02
 cg2d: Sum(rhs),rhsMax =   7.46170782143227E+04  9.06715054882746E-02
 cg2d: Sum(rhs),rhsMax =   7.50665273226108E+04  9.03555795221253E-02
 cg2d: Sum(rhs),rhsMax =   7.55027900294758E+04  9.00391640140694E-02
 cg2d: Sum(rhs),rhsMax =   7.59258059666986E+04  8.97224014370599E-02
 cg2d: Sum(rhs),rhsMax =   7.63355165094041E+04  8.94053988235842E-02
 cg2d: Sum(rhs),rhsMax =   7.67318647840450E+04  8.90882262584222E-02
 cg2d: Sum(rhs),rhsMax =   7.71147956760888E+04  8.87709164007154E-02
 cg2d: Sum(rhs),rhsMax =   7.74842558375052E+04  8.84534673091219E-02
 cg2d: Sum(rhs),rhsMax =   7.78401936939784E+04  8.81358481265344E-02
 cg2d: Sum(rhs),rhsMax =   7.81825594518980E+04  8.78180030803207E-02
 cg2d: Sum(rhs),rhsMax =   7.85113051050765E+04  8.74998540606461E-02
(PID.TID 0000.0001)      cg2d_init_res =   7.99560324820942E-01
(PID.TID 0000.0001)      cg2d_iters(min,last) =      -1     152
(PID.TID 0000.0001)      cg2d_last_res =   1.94005466814900E-11
(PID.TID 0000.0001) // =======================================================
(PID.TID 0000.0001) // Begin MONITOR dynamic field statistics
(PID.TID 0000.0001) // =======================================================
(PID.TID 0000.0001) %MON time_tsnumber                =              15811515
(PID.TID 0000.0001) %MON time_secondsf                =   1.2649212000000E+09
(PID.TID 0000.0001) %MON dynstat_eta_max              =   8.7498556066627E-01
(PID.TID 0000.0001) %MON dynstat_eta_min              =  -1.7051146745572E+00
(PID.TID 0000.0001) %MON dynstat_eta_mean             =  -2.9671128626141E-01
(PID.TID 0000.0001) %MON dynstat_eta_sd               =   3.4740015434925E-01
(PID.TID 0000.0001) %MON dynstat_eta_del2             =   1.0594567175180E-06
(PID.TID 0000.0001) %MON dynstat_uvel_max             =   2.7502417790648E+00
(PID.TID 0000.0001) %MON dynstat_uvel_min             =  -2.7258232678694E+00
(PID.TID 0000.0001) %MON dynstat_uvel_mean            =  -1.3896904080505E-02
(PID.TID 0000.0001) %MON dynstat_uvel_sd              =   9.4017839237432E-02
(PID.TID 0000.0001) %MON dynstat_uvel_del2            =   1.8770809945053E-06
(PID.TID 0000.0001) %MON dynstat_vvel_max             =   2.8094595248132E+00
(PID.TID 0000.0001) %MON dynstat_vvel_min             =  -2.8563211858754E+00
(PID.TID 0000.0001) %MON dynstat_vvel_mean            =  -9.7659844827955E-03
(PID.TID 0000.0001) %MON dynstat_vvel_sd              =   8.6198631787429E-02
(PID.TID 0000.0001) %MON dynstat_vvel_del2            =   1.7694246300693E-06
(PID.TID 0000.0001) %MON dynstat_wvel_max             =   5.1900633020052E-02
(PID.TID 0000.0001) %MON dynstat_wvel_min             =  -3.4154912454307E-02
(PID.TID 0000.0001) %MON dynstat_wvel_mean            =  -1.1106484711761E-05
(PID.TID 0000.0001) %MON dynstat_wvel_sd              =   1.6348986406464E-03
(PID.TID 0000.0001) %MON dynstat_wvel_del2            =   9.6904938140086E-08
(PID.TID 0000.0001) %MON dynstat_theta_max            =   2.4967192071761E+01
(PID.TID 0000.0001) %MON dynstat_theta_min            =  -2.6384953954657E+00
(PID.TID 0000.0001) %MON dynstat_theta_mean           =   5.5839114034283E+00
(PID.TID 0000.0001) %MON dynstat_theta_sd             =   4.6778136644485E+00
(PID.TID 0000.0001) %MON dynstat_theta_del2           =   7.4663335659648E-06
(PID.TID 0000.0001) %MON dynstat_salt_max             =   8.9674573069987E+01
(PID.TID 0000.0001) %MON dynstat_salt_min             =   2.0152370870282E+00
(PID.TID 0000.0001) %MON dynstat_salt_mean            =   3.5191480109452E+01
(PID.TID 0000.0001) %MON dynstat_salt_sd              =   4.5295988480895E-01
(PID.TID 0000.0001) %MON dynstat_salt_del2            =   1.4946738831127E-06
(PID.TID 0000.0001) %MON dynstat_sst_max              =   2.4947360295896E+01
(PID.TID 0000.0001) %MON dynstat_sst_min              =  -2.6384953954657E+00
(PID.TID 0000.0001) %MON dynstat_sst_mean             =   1.7716605564341E+01
(PID.TID 0000.0001) %MON dynstat_sst_sd               =   3.4039187029566E+00
(PID.TID 0000.0001) %MON dynstat_sst_del2             =   9.7837171287667E-05
(PID.TID 0000.0001) %MON dynstat_sss_max              =   8.9668901934514E+01
(PID.TID 0000.0001) %MON dynstat_sss_min              =   2.0152370870282E+00
(PID.TID 0000.0001) %MON dynstat_sss_mean             =   3.6425582225504E+01
(PID.TID 0000.0001) %MON dynstat_sss_sd               =   4.5221639851666E-01
(PID.TID 0000.0001) %MON dynstat_sss_del2             =   1.8881353929798E-05
(PID.TID 0000.0001) %MON forcing_qnet_max             =   1.4832023196932E+03
(PID.TID 0000.0001) %MON forcing_qnet_min             =  -2.4606657182178E+02
(PID.TID 0000.0001) %MON forcing_qnet_mean            =   2.4314041151761E+02
(PID.TID 0000.0001) %MON forcing_qnet_sd              =   1.9392814005120E+02
(PID.TID 0000.0001) %MON forcing_qnet_del2            =   5.1703681401048E-03
(PID.TID 0000.0001) %MON forcing_qsw_max              =   0.0000000000000E+00
(PID.TID 0000.0001) %MON forcing_qsw_min              =  -5.0711104006613E+00
(PID.TID 0000.0001) %MON forcing_qsw_mean             =  -7.3469235999342E-02
(PID.TID 0000.0001) %MON forcing_qsw_sd               =   4.1558943767157E-01
(PID.TID 0000.0001) %MON forcing_qsw_del2             =   3.5495771882828E-07
(PID.TID 0000.0001) %MON forcing_empmr_max            =   3.5087072604247E-04
(PID.TID 0000.0001) %MON forcing_empmr_min            =  -2.1682017962207E-03
(PID.TID 0000.0001) %MON forcing_empmr_mean           =  -3.7987730726661E-06
(PID.TID 0000.0001) %MON forcing_empmr_sd             =   1.5937047684961E-04
(PID.TID 0000.0001) %MON forcing_empmr_del2           =   1.5669260915616E-09
(PID.TID 0000.0001) %MON forcing_fu_max               =   1.2729643194866E+00
(PID.TID 0000.0001) %MON forcing_fu_min               =  -3.7813920164880E-01
(PID.TID 0000.0001) %MON forcing_fu_mean              =   1.3490907042424E-01
(PID.TID 0000.0001) %MON forcing_fu_sd                =   1.8339420532828E-01
(PID.TID 0000.0001) %MON forcing_fu_del2              =   9.6177306291126E-07
(PID.TID 0000.0001) %MON forcing_fv_max               =   7.0686991463093E-01
(PID.TID 0000.0001) %MON forcing_fv_min               =  -4.6824830400935E-01
(PID.TID 0000.0001) %MON forcing_fv_mean              =   2.0386079694895E-02
(PID.TID 0000.0001) %MON forcing_fv_sd                =   1.3431303317577E-01
(PID.TID 0000.0001) %MON forcing_fv_del2              =   7.6411756946136E-07
(PID.TID 0000.0001) %MON trAdv_CFL_u_max              =   9.3258843990081E-02
(PID.TID 0000.0001) %MON trAdv_CFL_v_max              =   9.8667300652853E-02
(PID.TID 0000.0001) %MON trAdv_CFL_w_max              =   3.5878396301385E-01
(PID.TID 0000.0001) %MON advcfl_uvel_max              =   9.3258843476339E-02
(PID.TID 0000.0001) %MON advcfl_vvel_max              =   9.8655537161122E-02
(PID.TID 0000.0001) %MON advcfl_wvel_max              =   3.5142265065942E-01
(PID.TID 0000.0001) %MON advcfl_W_hf_max              =   3.5878396301385E-01
(PID.TID 0000.0001) %MON pe_b_mean                    =  -6.9710570101457E-03
(PID.TID 0000.0001) %MON ke_max                       =   4.2479829040039E+00
(PID.TID 0000.0001) %MON ke_mean                      =   8.2343510760009E-03
(PID.TID 0000.0001) %MON ke_vol                       =   4.6123795034297E+16
(PID.TID 0000.0001) %MON vort_r_min                   =  -1.4223313669054E-03
(PID.TID 0000.0001) %MON vort_r_max                   =   1.1772152440844E-03
(PID.TID 0000.0001) %MON vort_a_mean                  =   8.2145894451435E-05
(PID.TID 0000.0001) %MON vort_a_sd                    =   1.4026284307584E-05
(PID.TID 0000.0001) %MON vort_p_mean                  =   8.4437924971351E-05
(PID.TID 0000.0001) %MON vort_p_sd                    =   3.4109494128147E-05
(PID.TID 0000.0001) %MON surfExpan_theta_mean         =  -2.0644758318909E-04
(PID.TID 0000.0001) %MON surfExpan_salt_mean          =  -5.6229812907336E-04
(PID.TID 0000.0001) // =======================================================
(PID.TID 0000.0001) // End MONITOR dynamic field statistics
(PID.TID 0000.0001) // =======================================================
(PID.TID 0000.0001) // =======================================================
(PID.TID 0000.0001) // Begin OBCS MONITOR field statistics
(PID.TID 0000.0001) // =======================================================
(PID.TID 0000.0001) %MON obc_E_uVel_max               =   4.3243900138869E-01
(PID.TID 0000.0001) %MON obc_E_uVel_min               =   3.6282781028267E-02
(PID.TID 0000.0001) %MON obc_E_uVel_mean              =   2.5221131461227E-01
(PID.TID 0000.0001) %MON obc_E_uVel_sd                =   8.6447889346508E-02
(PID.TID 0000.0001) %MON obc_E_uVel_Int               =   1.7212037396376E+06
(PID.TID 0000.0001) %MON obc_N_vVel_max               =   2.5724966232035E-01
(PID.TID 0000.0001) %MON obc_N_vVel_min               =  -1.0257127468930E+00
(PID.TID 0000.0001) %MON obc_N_vVel_mean              =  -8.0498374979272E-03
(PID.TID 0000.0001) %MON obc_N_vVel_sd                =   3.9349982823833E-02
(PID.TID 0000.0001) %MON obc_N_vVel_Int               =  -1.1486832102167E+08
(PID.TID 0000.0001) %MON obc_S_vVel_max               =   1.3571225066882E+00
(PID.TID 0000.0001) %MON obc_S_vVel_min               =  -1.7319008164379E-01
(PID.TID 0000.0001) %MON obc_S_vVel_mean              =  -9.5282268914039E-03
(PID.TID 0000.0001) %MON obc_S_vVel_sd                =   3.1777411511854E-02
(PID.TID 0000.0001) %MON obc_S_vVel_Int               =  -2.8973278954544E+08
(PID.TID 0000.0001) %MON obc_E_theta_max              =   1.5981519699097E+01
(PID.TID 0000.0001) %MON obc_E_theta_min              =   1.3104037284851E+01
(PID.TID 0000.0001) %MON obc_E_theta_mean             =   1.4974089986960E+01
(PID.TID 0000.0001) %MON obc_E_theta_sd               =   6.0075505804650E-01
(PID.TID 0000.0001) %MON obc_N_theta_max              =   1.5721092224121E+01
(PID.TID 0000.0001) %MON obc_N_theta_min              =   9.7373789548874E-01
(PID.TID 0000.0001) %MON obc_N_theta_mean             =   5.3443110148828E+00
(PID.TID 0000.0001) %MON obc_N_theta_sd               =   3.5834807335781E+00
(PID.TID 0000.0001) %MON obc_S_theta_max              =   2.4979528427124E+01
(PID.TID 0000.0001) %MON obc_S_theta_min              =   1.5124862194061E+00
(PID.TID 0000.0001) %MON obc_S_theta_mean             =   5.4273114502690E+00
(PID.TID 0000.0001) %MON obc_S_theta_sd               =   5.1694562801555E+00
(PID.TID 0000.0001) %MON obc_E_salt_max               =   3.8703720092773E+01
(PID.TID 0000.0001) %MON obc_E_salt_min               =   3.6289142608643E+01
(PID.TID 0000.0001) %MON obc_E_salt_mean              =   3.6643778075730E+01
(PID.TID 0000.0001) %MON obc_E_salt_sd                =   5.5037722650442E-01
(PID.TID 0000.0001) %MON obc_N_salt_max               =   3.6066974639893E+01
(PID.TID 0000.0001) %MON obc_N_salt_min               =   3.2878395080566E+01
(PID.TID 0000.0001) %MON obc_N_salt_mean              =   3.5117165924185E+01
(PID.TID 0000.0001) %MON obc_N_salt_sd                =   3.1541903364831E-01
(PID.TID 0000.0001) %MON obc_S_salt_max               =   3.7600940704346E+01
(PID.TID 0000.0001) %MON obc_S_salt_min               =   3.4853485107422E+01
(PID.TID 0000.0001) %MON obc_S_salt_mean              =   3.5185630803177E+01
(PID.TID 0000.0001) %MON obc_S_salt_sd                =   4.9502018312198E-01
(PID.TID 0000.0001) // =======================================================
(PID.TID 0000.0001) // End OBCS MONITOR field statistics
(PID.TID 0000.0001) // =======================================================
(PID.TID 0000.0001) // =======================================================
(PID.TID 0000.0001) // Begin MONITOR ptracer field statistics
(PID.TID 0000.0001) // =======================================================
(PID.TID 0000.0001) %MON trcstat_ptracer01_max        =   0.0000000000000E+00
(PID.TID 0000.0001) %MON trcstat_ptracer01_min        =   0.0000000000000E+00
(PID.TID 0000.0001) %MON trcstat_ptracer01_mean       =   0.0000000000000E+00
(PID.TID 0000.0001) %MON trcstat_ptracer01_sd         =   0.0000000000000E+00
(PID.TID 0000.0001) %MON trcstat_ptracer01_del2       =   0.0000000000000E+00
(PID.TID 0000.0001) %MON trcstat_ptracer02_max        =   0.0000000000000E+00
(PID.TID 0000.0001) %MON trcstat_ptracer02_min        =   0.0000000000000E+00
(PID.TID 0000.0001) %MON trcstat_ptracer02_mean       =   0.0000000000000E+00
(PID.TID 0000.0001) %MON trcstat_ptracer02_sd         =   0.0000000000000E+00
(PID.TID 0000.0001) %MON trcstat_ptracer02_del2       =   0.0000000000000E+00
(PID.TID 0000.0001) // =======================================================
(PID.TID 0000.0001) // End MONITOR ptracer field statistics
(PID.TID 0000.0001) // =======================================================
(PID.TID 0000.0001) // =======================================================
(PID.TID 0000.0001) // Begin MONITOR EXF statistics
(PID.TID 0000.0001) // =======================================================
(PID.TID 0000.0001) %MON exf_tsnumber                 =              15811515
(PID.TID 0000.0001) %MON exf_time_sec                 =   1.2649212000000E+09
(PID.TID 0000.0001) %MON exf_ustress_max              =   1.2730113971361E+00
(PID.TID 0000.0001) %MON exf_ustress_min              =  -3.8216636611939E-01
(PID.TID 0000.0001) %MON exf_ustress_mean             =   1.3496679783575E-01
(PID.TID 0000.0001) %MON exf_ustress_sd               =   1.8355977757878E-01
(PID.TID 0000.0001) %MON exf_ustress_del2             =   1.0448293519374E-06
(PID.TID 0000.0001) %MON exf_vstress_max              =   7.1524449676857E-01
(PID.TID 0000.0001) %MON exf_vstress_min              =  -4.6500266850415E-01
(PID.TID 0000.0001) %MON exf_vstress_mean             =   2.0343262916482E-02
(PID.TID 0000.0001) %MON exf_vstress_sd               =   1.3459386377521E-01
(PID.TID 0000.0001) %MON exf_vstress_del2             =   8.4763201218911E-07
(PID.TID 0000.0001) %MON exf_hflux_max                =   1.4524993997659E+03
(PID.TID 0000.0001) %MON exf_hflux_min                =  -1.9793534103708E+02
(PID.TID 0000.0001) %MON exf_hflux_mean               =   2.4261232708609E+02
(PID.TID 0000.0001) %MON exf_hflux_sd                 =   1.8955256372813E+02
(PID.TID 0000.0001) %MON exf_hflux_del2               =   9.3923762740561E-02
(PID.TID 0000.0001) %MON exf_sflux_max                =   3.5092401317414E-07
(PID.TID 0000.0001) %MON exf_sflux_min                =  -2.1915762565143E-06
(PID.TID 0000.0001) %MON exf_sflux_mean               =  -3.8164021739116E-09
(PID.TID 0000.0001) %MON exf_sflux_sd                 =   1.5955745480353E-07
(PID.TID 0000.0001) %MON exf_sflux_del2               =   4.9876757212186E-11
(PID.TID 0000.0001) %MON exf_uwind_max                =   2.2272882663547E+01
(PID.TID 0000.0001) %MON exf_uwind_min                =  -1.4306162506402E+01
(PID.TID 0000.0001) %MON exf_uwind_mean               =   5.8519327391959E+00
(PID.TID 0000.0001) %MON exf_uwind_sd                 =   6.2578914146595E+00
(PID.TID 0000.0001) %MON exf_uwind_del2               =   2.6591632073766E-03
(PID.TID 0000.0001) %MON exf_vwind_max                =   1.8116404204442E+01
(PID.TID 0000.0001) %MON exf_vwind_min                =  -1.4131297251723E+01
(PID.TID 0000.0001) %MON exf_vwind_mean               =   8.5033244554189E-01
(PID.TID 0000.0001) %MON exf_vwind_sd                 =   6.2575460793203E+00
(PID.TID 0000.0001) %MON exf_vwind_del2               =   1.9311085195085E-03
(PID.TID 0000.0001) %MON exf_wspeed_max               =   2.3190311222451E+01
(PID.TID 0000.0001) %MON exf_wspeed_min               =   3.9347648352896E-03
(PID.TID 0000.0001) %MON exf_wspeed_mean              =   9.7165909043725E+00
(PID.TID 0000.0001) %MON exf_wspeed_sd                =   4.3444368037259E+00
(PID.TID 0000.0001) %MON exf_wspeed_del2              =   3.2861217116919E-03
(PID.TID 0000.0001) %MON exf_atemp_max                =   2.9667460237719E+02
(PID.TID 0000.0001) %MON exf_atemp_min                =   2.6846875914563E+02
(PID.TID 0000.0001) %MON exf_atemp_mean               =   2.8905365033177E+02
(PID.TID 0000.0001) %MON exf_atemp_sd                 =   4.8025196217250E+00
(PID.TID 0000.0001) %MON exf_atemp_del2               =   5.0344366174513E-03
(PID.TID 0000.0001) %MON exf_aqh_max                  =   1.5119118841442E-02
(PID.TID 0000.0001) %MON exf_aqh_min                  =   1.5523491239753E-03
(PID.TID 0000.0001) %MON exf_aqh_mean                 =   8.6444392961497E-03
(PID.TID 0000.0001) %MON exf_aqh_sd                   =   3.0316783147885E-03
(PID.TID 0000.0001) %MON exf_aqh_del2                 =   2.7845482318159E-06
(PID.TID 0000.0001) %MON exf_lwflux_max               =   1.6542363666029E+02
(PID.TID 0000.0001) %MON exf_lwflux_min               =  -3.8674267205526E+00
(PID.TID 0000.0001) %MON exf_lwflux_mean              =   6.1962422424181E+01
(PID.TID 0000.0001) %MON exf_lwflux_sd                =   2.7875516985957E+01
(PID.TID 0000.0001) %MON exf_lwflux_del2              =   2.0634267512871E-02
(PID.TID 0000.0001) %MON exf_evap_max                 =   3.8382144092151E-07
(PID.TID 0000.0001) %MON exf_evap_min                 =  -5.6330063482258E-08
(PID.TID 0000.0001) %MON exf_evap_mean                =   6.1314772418935E-08
(PID.TID 0000.0001) %MON exf_evap_sd                  =   5.1917258991503E-08
(PID.TID 0000.0001) %MON exf_evap_del2                =   2.4505878924210E-11
(PID.TID 0000.0001) %MON exf_precip_max               =   2.2659178428153E-06
(PID.TID 0000.0001) %MON exf_precip_min               =   0.0000000000000E+00
(PID.TID 0000.0001) %MON exf_precip_mean              =   6.3524129958377E-08
(PID.TID 0000.0001) %MON exf_precip_sd                =   1.5161965943427E-07
(PID.TID 0000.0001) %MON exf_precip_del2              =   5.1579890557552E-11
(PID.TID 0000.0001) %MON exf_swflux_max               =   0.0000000000000E+00
(PID.TID 0000.0001) %MON exf_swflux_min               =  -5.3069779491395E+00
(PID.TID 0000.0001) %MON exf_swflux_mean              =  -7.6886435532761E-02
(PID.TID 0000.0001) %MON exf_swflux_sd                =   4.3491932765748E-01
(PID.TID 0000.0001) %MON exf_swflux_del2              =   1.3356870446358E-04
(PID.TID 0000.0001) %MON exf_swdown_max               =   5.8569430422048E+00
(PID.TID 0000.0001) %MON exf_swdown_min               =   0.0000000000000E+00
(PID.TID 0000.0001) %MON exf_swdown_mean              =   8.4620458900263E-02
(PID.TID 0000.0001) %MON exf_swdown_sd                =   4.7892443117292E-01
(PID.TID 0000.0001) %MON exf_swdown_del2              =   1.4709056834559E-04
(PID.TID 0000.0001) %MON exf_lwdown_max               =   4.0732661037446E+02
(PID.TID 0000.0001) %MON exf_lwdown_min               =   1.9210321666733E+02
(PID.TID 0000.0001) %MON exf_lwdown_mean              =   3.4229517833789E+02
(PID.TID 0000.0001) %MON exf_lwdown_sd                =   3.2821022876304E+01
(PID.TID 0000.0001) %MON exf_lwdown_del2              =   1.0503289273792E-01
(PID.TID 0000.0001) %MON exf_apressure_max            =   1.0266287766269E+05
(PID.TID 0000.0001) %MON exf_apressure_min            =   9.8775975432556E+04
(PID.TID 0000.0001) %MON exf_apressure_mean           =   1.0149341053470E+05
(PID.TID 0000.0001) %MON exf_apressure_sd             =   7.8516134030428E+02
(PID.TID 0000.0001) %MON exf_apressure_del2           =   3.1012788692648E+01
(PID.TID 0000.0001) %MON exf_runoff_max               =   4.6633690723924E-08
(PID.TID 0000.0001) %MON exf_runoff_min               =   0.0000000000000E+00
(PID.TID 0000.0001) %MON exf_runoff_mean              =   1.6070446344693E-09
(PID.TID 0000.0001) %MON exf_runoff_sd                =   5.4409705936606E-09
(PID.TID 0000.0001) %MON exf_runoff_del2              =   1.7602788524736E-12
(PID.TID 0000.0001) // =======================================================
(PID.TID 0000.0001) // End MONITOR EXF statistics
(PID.TID 0000.0001) // =======================================================
 cg2d: Sum(rhs),rhsMax =   7.88263844412593E+04  8.71813036565767E-02
 cg2d: Sum(rhs),rhsMax =   7.91277530483412E+04  8.68622410060201E-02
 cg2d: Sum(rhs),rhsMax =   7.94153683203706E+04  8.65425321363513E-02
 cg2d: Sum(rhs),rhsMax =   7.96891894632877E+04  8.62220213387847E-02
 cg2d: Sum(rhs),rhsMax =   7.99491775004146E+04  8.59005335361252E-02
 cg2d: Sum(rhs),rhsMax =   8.01952952776938E+04  8.55778731595147E-02
 cg2d: Sum(rhs),rhsMax =   8.04275074686847E+04  8.52538211856086E-02
 cg2d: Sum(rhs),rhsMax =   8.06457805792936E+04  8.49281362278109E-02
 cg2d: Sum(rhs),rhsMax =   8.08500829522605E+04  8.46005552936867E-02
 cg2d: Sum(rhs),rhsMax =   8.10403847713965E+04  8.42707953788530E-02
 cg2d: Sum(rhs),rhsMax =   8.12166580655541E+04  8.39385567384339E-02
 cg2d: Sum(rhs),rhsMax =   8.13788767123581E+04  8.36035286120676E-02
 cg2d: Sum(rhs),rhsMax =   8.15270164416747E+04  8.32653965609505E-02
 cg2d: Sum(rhs),rhsMax =   8.16610548388266E+04  8.29238500764605E-02
 cg2d: Sum(rhs),rhsMax =   8.17809713475498E+04  8.25785885771989E-02
 cg2d: Sum(rhs),rhsMax =   8.18867472727147E+04  8.22293244956499E-02
 cg2d: Sum(rhs),rhsMax =   8.19783657827551E+04  8.18757833004923E-02
 cg2d: Sum(rhs),rhsMax =   8.20558119118815E+04  8.15177008361977E-02
 cg2d: Sum(rhs),rhsMax =   8.21190725620091E+04  8.11548208785237E-02
 cg2d: Sum(rhs),rhsMax =   8.21681365044518E+04  8.07868878870328E-02
 cg2d: Sum(rhs),rhsMax =   8.22029943813316E+04  8.04136390130923E-02
 cg2d: Sum(rhs),rhsMax =   8.22236387067781E+04  8.00348005242429E-02
 cg2d: Sum(rhs),rhsMax =   8.22300638678122E+04  7.96500893609964E-02
 cg2d: Sum(rhs),rhsMax =   8.22222661250367E+04  7.92592170496151E-02
 cg2d: Sum(rhs),rhsMax =   8.22002436130153E+04  7.88618928871251E-02
 cg2d: Sum(rhs),rhsMax =   8.21639963404442E+04  7.84578259762385E-02
 cg2d: Sum(rhs),rhsMax =   8.21135261900180E+04  7.80467278434149E-02
 cg2d: Sum(rhs),rhsMax =   8.20488369181032E+04  7.76283159799594E-02
 cg2d: Sum(rhs),rhsMax =   8.19699341540811E+04  7.72023178014506E-02
 cg2d: Sum(rhs),rhsMax =   8.18768253995171E+04  7.67684746880745E-02
 cg2d: Sum(rhs),rhsMax =   8.17695200269980E+04  7.63265456674024E-02
 cg2d: Sum(rhs),rhsMax =   8.16480292787876E+04  7.58763103283238E-02
 cg2d: Sum(rhs),rhsMax =   8.15123662651527E+04  7.54175712778477E-02
 cg2d: Sum(rhs),rhsMax =   8.13625459625264E+04  7.49501543129404E-02
 cg2d: Sum(rhs),rhsMax =   8.11985852113144E+04  7.44739086649551E-02
 cg2d: Sum(rhs),rhsMax =   8.10205027135590E+04  7.39887081362870E-02
 cg2d: Sum(rhs),rhsMax =   8.08283190302476E+04  7.34944506094923E-02
 cg2d: Sum(rhs),rhsMax =   8.06220565784646E+04  7.29910554167438E-02
 cg2d: Sum(rhs),rhsMax =   8.04017396281974E+04  7.24784596105415E-02
 cg2d: Sum(rhs),rhsMax =   8.01673942990043E+04  7.19566164180331E-02
 cg2d: Sum(rhs),rhsMax =   7.99190485563046E+04  7.14254944740069E-02
 cg2d: Sum(rhs),rhsMax =   7.96567322075563E+04  7.08850743739219E-02
 cg2d: Sum(rhs),rhsMax =   7.93804768980560E+04  7.03373108776416E-02
 cg2d: Sum(rhs),rhsMax =   7.90903161066181E+04  6.97799993451220E-02
 cg2d: Sum(rhs),rhsMax =   7.87862851408719E+04  6.92126846947988E-02
(PID.TID 0000.0001)      cg2d_init_res =   6.46079656509355E-01
(PID.TID 0000.0001)      cg2d_iters(min,last) =      -1     150
(PID.TID 0000.0001)      cg2d_last_res =   1.99430618681540E-11
(PID.TID 0000.0001) // =======================================================
(PID.TID 0000.0001) // Begin MONITOR dynamic field statistics
(PID.TID 0000.0001) // =======================================================
(PID.TID 0000.0001) %MON time_tsnumber                =              15811560
(PID.TID 0000.0001) %MON time_secondsf                =   1.2649248000000E+09
(PID.TID 0000.0001) %MON dynstat_eta_max              =   1.0540795490209E+00
(PID.TID 0000.0001) %MON dynstat_eta_min              =  -1.7221982109210E+00
(PID.TID 0000.0001) %MON dynstat_eta_mean             =  -2.9775049558302E-01
(PID.TID 0000.0001) %MON dynstat_eta_sd               =   4.4406470687782E-01
(PID.TID 0000.0001) %MON dynstat_eta_del2             =   1.0257149104579E-06
(PID.TID 0000.0001) %MON dynstat_uvel_max             =   2.8115379111634E+00
(PID.TID 0000.0001) %MON dynstat_uvel_min             =  -2.7678021289045E+00
(PID.TID 0000.0001) %MON dynstat_uvel_mean            =  -1.4252036707057E-02
(PID.TID 0000.0001) %MON dynstat_uvel_sd              =   9.3730000558497E-02
(PID.TID 0000.0001) %MON dynstat_uvel_del2            =   1.8747396674212E-06
(PID.TID 0000.0001) %MON dynstat_vvel_max             =   2.8347749369507E+00
(PID.TID 0000.0001) %MON dynstat_vvel_min             =  -2.9179430267394E+00
(PID.TID 0000.0001) %MON dynstat_vvel_mean            =  -5.4921452142290E-03
(PID.TID 0000.0001) %MON dynstat_vvel_sd              =   8.6286909208233E-02
(PID.TID 0000.0001) %MON dynstat_vvel_del2            =   1.7643151813422E-06
(PID.TID 0000.0001) %MON dynstat_wvel_max             =   5.0601737810322E-02
(PID.TID 0000.0001) %MON dynstat_wvel_min             =  -3.6573112167132E-02
(PID.TID 0000.0001) %MON dynstat_wvel_mean            =   6.8483852185085E-06
(PID.TID 0000.0001) %MON dynstat_wvel_sd              =   1.6337989908313E-03
(PID.TID 0000.0001) %MON dynstat_wvel_del2            =   9.7129872025893E-08
(PID.TID 0000.0001) %MON dynstat_theta_max            =   2.4967021752078E+01
(PID.TID 0000.0001) %MON dynstat_theta_min            =  -2.6645767736721E+00
(PID.TID 0000.0001) %MON dynstat_theta_mean           =   5.5838180480447E+00
(PID.TID 0000.0001) %MON dynstat_theta_sd             =   4.6775390708457E+00
(PID.TID 0000.0001) %MON dynstat_theta_del2           =   7.4782337396601E-06
(PID.TID 0000.0001) %MON dynstat_salt_max             =   8.9672290378937E+01
(PID.TID 0000.0001) %MON dynstat_salt_min             =   2.0152553638235E+00
(PID.TID 0000.0001) %MON dynstat_salt_mean            =   3.5191476720827E+01
(PID.TID 0000.0001) %MON dynstat_salt_sd              =   4.5294666138615E-01
(PID.TID 0000.0001) %MON dynstat_salt_del2            =   1.4972350365263E-06
(PID.TID 0000.0001) %MON dynstat_sst_max              =   2.4946537315648E+01
(PID.TID 0000.0001) %MON dynstat_sst_min              =  -2.6645767736721E+00
(PID.TID 0000.0001) %MON dynstat_sst_mean             =   1.7713677037234E+01
(PID.TID 0000.0001) %MON dynstat_sst_sd               =   3.4029030072200E+00
(PID.TID 0000.0001) %MON dynstat_sst_del2             =   9.7765841965273E-05
(PID.TID 0000.0001) %MON dynstat_sss_max              =   8.9668759481115E+01
(PID.TID 0000.0001) %MON dynstat_sss_min              =   2.0152553638235E+00
(PID.TID 0000.0001) %MON dynstat_sss_mean             =   3.6425515760516E+01
(PID.TID 0000.0001) %MON dynstat_sss_sd               =   4.5224985133402E-01
(PID.TID 0000.0001) %MON dynstat_sss_del2             =   1.8912168384541E-05
(PID.TID 0000.0001) %MON forcing_qnet_max             =   1.5220015478101E+03
(PID.TID 0000.0001) %MON forcing_qnet_min             =  -2.1317422586930E+02
(PID.TID 0000.0001) %MON forcing_qnet_mean            =   2.4250483987889E+02
(PID.TID 0000.0001) %MON forcing_qnet_sd              =   2.0239075499394E+02
(PID.TID 0000.0001) %MON forcing_qnet_del2            =   5.2822347915350E-03
(PID.TID 0000.0001) %MON forcing_qsw_max              =   0.0000000000000E+00
(PID.TID 0000.0001) %MON forcing_qsw_min              =  -6.9229698032837E+01
(PID.TID 0000.0001) %MON forcing_qsw_mean             =  -3.5796447479493E+00
(PID.TID 0000.0001) %MON forcing_qsw_sd               =   1.0254456232054E+01
(PID.TID 0000.0001) %MON forcing_qsw_del2             =   7.8755094489800E-06
(PID.TID 0000.0001) %MON forcing_empmr_max            =   3.5534244511722E-04
(PID.TID 0000.0001) %MON forcing_empmr_min            =  -2.8475089537696E-03
(PID.TID 0000.0001) %MON forcing_empmr_mean           =  -6.4257133426398E-06
(PID.TID 0000.0001) %MON forcing_empmr_sd             =   1.6808688880537E-04
(PID.TID 0000.0001) %MON forcing_empmr_del2           =   1.6398990686252E-09
(PID.TID 0000.0001) %MON forcing_fu_max               =   1.2419093254803E+00
(PID.TID 0000.0001) %MON forcing_fu_min               =  -4.4067232936364E-01
(PID.TID 0000.0001) %MON forcing_fu_mean              =   1.3546237676566E-01
(PID.TID 0000.0001) %MON forcing_fu_sd                =   1.8333378717635E-01
(PID.TID 0000.0001) %MON forcing_fu_del2              =   9.6235689572476E-07
(PID.TID 0000.0001) %MON forcing_fv_max               =   7.5059031554556E-01
(PID.TID 0000.0001) %MON forcing_fv_min               =  -5.4916324633715E-01
(PID.TID 0000.0001) %MON forcing_fv_mean              =   1.7309887639587E-02
(PID.TID 0000.0001) %MON forcing_fv_sd                =   1.3987051320690E-01
(PID.TID 0000.0001) %MON forcing_fv_del2              =   7.8423941450559E-07
(PID.TID 0000.0001) %MON trAdv_CFL_u_max              =   9.5337354491991E-02
(PID.TID 0000.0001) %MON trAdv_CFL_v_max              =   1.0079594359158E-01
(PID.TID 0000.0001) %MON trAdv_CFL_w_max              =   3.7587796752377E-01
(PID.TID 0000.0001) %MON advcfl_uvel_max              =   9.5337353966799E-02
(PID.TID 0000.0001) %MON advcfl_vvel_max              =   1.0078391678501E-01
(PID.TID 0000.0001) %MON advcfl_wvel_max              =   3.6816593072355E-01
(PID.TID 0000.0001) %MON advcfl_W_hf_max              =   3.7587796752377E-01
(PID.TID 0000.0001) %MON pe_b_mean                    =  -6.8959351348144E-03
(PID.TID 0000.0001) %MON ke_max                       =   4.3952268032284E+00
(PID.TID 0000.0001) %MON ke_mean                      =   8.1876311658535E-03
(PID.TID 0000.0001) %MON ke_vol                       =   4.6123795034297E+16
(PID.TID 0000.0001) %MON vort_r_min                   =  -1.1674487130039E-03
(PID.TID 0000.0001) %MON vort_r_max                   =   1.0363335205740E-03
(PID.TID 0000.0001) %MON vort_a_mean                  =   8.2145896903372E-05
(PID.TID 0000.0001) %MON vort_a_sd                    =   1.4007049825570E-05
(PID.TID 0000.0001) %MON vort_p_mean                  =   8.4437927491702E-05
(PID.TID 0000.0001) %MON vort_p_sd                    =   3.4063059139511E-05
(PID.TID 0000.0001) %MON surfExpan_theta_mean         =   3.0612261303493E-04
(PID.TID 0000.0001) %MON surfExpan_salt_mean          =   5.2638308603906E-04
(PID.TID 0000.0001) // =======================================================
(PID.TID 0000.0001) // End MONITOR dynamic field statistics
(PID.TID 0000.0001) // =======================================================
(PID.TID 0000.0001) // =======================================================
(PID.TID 0000.0001) // Begin OBCS MONITOR field statistics
(PID.TID 0000.0001) // =======================================================
(PID.TID 0000.0001) %MON obc_E_uVel_max               =   8.7601788463295E-02
(PID.TID 0000.0001) %MON obc_E_uVel_min               =  -2.5053668394461E-01
(PID.TID 0000.0001) %MON obc_E_uVel_mean              =  -3.2561573090875E-02
(PID.TID 0000.0001) %MON obc_E_uVel_sd                =   7.5669247603747E-02
(PID.TID 0000.0001) %MON obc_E_uVel_Int               =  -2.2221485764290E+05
(PID.TID 0000.0001) %MON obc_N_vVel_max               =   4.3103030733026E-01
(PID.TID 0000.0001) %MON obc_N_vVel_min               =  -8.2892417187865E-01
(PID.TID 0000.0001) %MON obc_N_vVel_mean              =  -1.1786368697799E-02
(PID.TID 0000.0001) %MON obc_N_vVel_sd                =   3.9820114348824E-02
(PID.TID 0000.0001) %MON obc_N_vVel_Int               =  -1.6818729366986E+08
(PID.TID 0000.0001) %MON obc_S_vVel_max               =   1.3545563575137E+00
(PID.TID 0000.0001) %MON obc_S_vVel_min               =  -1.6398516422643E-01
(PID.TID 0000.0001) %MON obc_S_vVel_mean              =  -1.6769775890448E-04
(PID.TID 0000.0001) %MON obc_S_vVel_sd                =   3.0578604370439E-02
(PID.TID 0000.0001) %MON obc_S_vVel_Int               =  -5.0993264582886E+06
(PID.TID 0000.0001) %MON obc_E_theta_max              =   1.5981519699097E+01
(PID.TID 0000.0001) %MON obc_E_theta_min              =   1.3104037284851E+01
(PID.TID 0000.0001) %MON obc_E_theta_mean             =   1.4974089986960E+01
(PID.TID 0000.0001) %MON obc_E_theta_sd               =   6.0075505804650E-01
(PID.TID 0000.0001) %MON obc_N_theta_max              =   1.5721092224121E+01
(PID.TID 0000.0001) %MON obc_N_theta_min              =   9.7373789548874E-01
(PID.TID 0000.0001) %MON obc_N_theta_mean             =   5.3443110148828E+00
(PID.TID 0000.0001) %MON obc_N_theta_sd               =   3.5834807335781E+00
(PID.TID 0000.0001) %MON obc_S_theta_max              =   2.4979528427124E+01
(PID.TID 0000.0001) %MON obc_S_theta_min              =   1.5124862194061E+00
(PID.TID 0000.0001) %MON obc_S_theta_mean             =   5.4273114502690E+00
(PID.TID 0000.0001) %MON obc_S_theta_sd               =   5.1694562801555E+00
(PID.TID 0000.0001) %MON obc_E_salt_max               =   3.8703720092773E+01
(PID.TID 0000.0001) %MON obc_E_salt_min               =   3.6289142608643E+01
(PID.TID 0000.0001) %MON obc_E_salt_mean              =   3.6643778075730E+01
(PID.TID 0000.0001) %MON obc_E_salt_sd                =   5.5037722650442E-01
(PID.TID 0000.0001) %MON obc_N_salt_max               =   3.6066974639893E+01
(PID.TID 0000.0001) %MON obc_N_salt_min               =   3.2878395080566E+01
(PID.TID 0000.0001) %MON obc_N_salt_mean              =   3.5117165924185E+01
(PID.TID 0000.0001) %MON obc_N_salt_sd                =   3.1541903364831E-01
(PID.TID 0000.0001) %MON obc_S_salt_max               =   3.7600940704346E+01
(PID.TID 0000.0001) %MON obc_S_salt_min               =   3.4853485107422E+01
(PID.TID 0000.0001) %MON obc_S_salt_mean              =   3.5185630803177E+01
(PID.TID 0000.0001) %MON obc_S_salt_sd                =   4.9502018312198E-01
(PID.TID 0000.0001) // =======================================================
(PID.TID 0000.0001) // End OBCS MONITOR field statistics
(PID.TID 0000.0001) // =======================================================
(PID.TID 0000.0001) // =======================================================
(PID.TID 0000.0001) // Begin MONITOR ptracer field statistics
(PID.TID 0000.0001) // =======================================================
(PID.TID 0000.0001) %MON trcstat_ptracer01_max        =   0.0000000000000E+00
(PID.TID 0000.0001) %MON trcstat_ptracer01_min        =   0.0000000000000E+00
(PID.TID 0000.0001) %MON trcstat_ptracer01_mean       =   0.0000000000000E+00
(PID.TID 0000.0001) %MON trcstat_ptracer01_sd         =   0.0000000000000E+00
(PID.TID 0000.0001) %MON trcstat_ptracer01_del2       =   0.0000000000000E+00
(PID.TID 0000.0001) %MON trcstat_ptracer02_max        =   0.0000000000000E+00
(PID.TID 0000.0001) %MON trcstat_ptracer02_min        =   0.0000000000000E+00
(PID.TID 0000.0001) %MON trcstat_ptracer02_mean       =   0.0000000000000E+00
(PID.TID 0000.0001) %MON trcstat_ptracer02_sd         =   0.0000000000000E+00
(PID.TID 0000.0001) %MON trcstat_ptracer02_del2       =   0.0000000000000E+00
(PID.TID 0000.0001) // =======================================================
(PID.TID 0000.0001) // End MONITOR ptracer field statistics
(PID.TID 0000.0001) // =======================================================
(PID.TID 0000.0001) // =======================================================
(PID.TID 0000.0001) // Begin MONITOR EXF statistics
(PID.TID 0000.0001) // =======================================================
(PID.TID 0000.0001) %MON exf_tsnumber                 =              15811560
(PID.TID 0000.0001) %MON exf_time_sec                 =   1.2649248000000E+09
(PID.TID 0000.0001) %MON exf_ustress_max              =   1.2440813747584E+00
(PID.TID 0000.0001) %MON exf_ustress_min              =  -4.4343069996847E-01
(PID.TID 0000.0001) %MON exf_ustress_mean             =   1.3546936422902E-01
(PID.TID 0000.0001) %MON exf_ustress_sd               =   1.8343305425090E-01
(PID.TID 0000.0001) %MON exf_ustress_del2             =   1.0460083266575E-06
(PID.TID 0000.0001) %MON exf_vstress_max              =   7.6686771487058E-01
(PID.TID 0000.0001) %MON exf_vstress_min              =  -5.4033600659690E-01
(PID.TID 0000.0001) %MON exf_vstress_mean             =   1.7255584537183E-02
(PID.TID 0000.0001) %MON exf_vstress_sd               =   1.4010979819699E-01
(PID.TID 0000.0001) %MON exf_vstress_del2             =   8.6859875480631E-07
(PID.TID 0000.0001) %MON exf_hflux_max                =   1.4887617207820E+03
(PID.TID 0000.0001) %MON exf_hflux_min                =  -1.6812588756102E+02
(PID.TID 0000.0001) %MON exf_hflux_mean               =   2.4188478908325E+02
(PID.TID 0000.0001) %MON exf_hflux_sd                 =   1.9785385375297E+02
(PID.TID 0000.0001) %MON exf_hflux_del2               =   9.5302270599428E-02
(PID.TID 0000.0001) %MON exf_sflux_max                =   3.5562651528128E-07
(PID.TID 0000.0001) %MON exf_sflux_min                =  -2.8706039793414E-06
(PID.TID 0000.0001) %MON exf_sflux_mean               =  -6.4990828739180E-09
(PID.TID 0000.0001) %MON exf_sflux_sd                 =   1.6830623278140E-07
(PID.TID 0000.0001) %MON exf_sflux_del2               =   5.2901211624369E-11
(PID.TID 0000.0001) %MON exf_uwind_max                =   2.2039180833010E+01
(PID.TID 0000.0001) %MON exf_uwind_min                =  -1.5306429031614E+01
(PID.TID 0000.0001) %MON exf_uwind_mean               =   5.8432650970247E+00
(PID.TID 0000.0001) %MON exf_uwind_sd                 =   6.2886945249142E+00
(PID.TID 0000.0001) %MON exf_uwind_del2               =   2.6646869292731E-03
(PID.TID 0000.0001) %MON exf_vwind_max                =   1.8248308052753E+01
(PID.TID 0000.0001) %MON exf_vwind_min                =  -1.4421187253793E+01
(PID.TID 0000.0001) %MON exf_vwind_mean               =   7.6410210805546E-01
(PID.TID 0000.0001) %MON exf_vwind_sd                 =   6.3719596179671E+00
(PID.TID 0000.0001) %MON exf_vwind_del2               =   1.9634909208682E-03
(PID.TID 0000.0001) %MON exf_wspeed_max               =   2.3181032414253E+01
(PID.TID 0000.0001) %MON exf_wspeed_min               =   1.1170734226524E-02
(PID.TID 0000.0001) %MON exf_wspeed_mean              =   9.8036844323978E+00
(PID.TID 0000.0001) %MON exf_wspeed_sd                =   4.3318493482917E+00
(PID.TID 0000.0001) %MON exf_wspeed_del2              =   3.3097265057987E-03
(PID.TID 0000.0001) %MON exf_atemp_max                =   2.9661982467158E+02
(PID.TID 0000.0001) %MON exf_atemp_min                =   2.6808331980204E+02
(PID.TID 0000.0001) %MON exf_atemp_mean               =   2.8902172123019E+02
(PID.TID 0000.0001) %MON exf_atemp_sd                 =   4.8397663211275E+00
(PID.TID 0000.0001) %MON exf_atemp_del2               =   5.0288058722172E-03
(PID.TID 0000.0001) %MON exf_aqh_max                  =   1.5155157990160E-02
(PID.TID 0000.0001) %MON exf_aqh_min                  =   1.5173610821128E-03
(PID.TID 0000.0001) %MON exf_aqh_mean                 =   8.6500424743544E-03
(PID.TID 0000.0001) %MON exf_aqh_sd                   =   3.0125942691896E-03
(PID.TID 0000.0001) %MON exf_aqh_del2                 =   2.7849549303927E-06
(PID.TID 0000.0001) %MON exf_lwflux_max               =   1.7325569105867E+02
(PID.TID 0000.0001) %MON exf_lwflux_min               =  -4.1120455645609E+00
(PID.TID 0000.0001) %MON exf_lwflux_mean              =   6.1265882055427E+01
(PID.TID 0000.0001) %MON exf_lwflux_sd                =   2.7959572989970E+01
(PID.TID 0000.0001) %MON exf_lwflux_del2              =   2.0449847551802E-02
(PID.TID 0000.0001) %MON exf_evap_max                 =   3.9000046957222E-07
(PID.TID 0000.0001) %MON exf_evap_min                 =  -4.8147038229047E-08
(PID.TID 0000.0001) %MON exf_evap_mean                =   6.2176413744312E-08
(PID.TID 0000.0001) %MON exf_evap_sd                  =   5.3563430166327E-08
(PID.TID 0000.0001) %MON exf_evap_del2                =   2.5019802895398E-11
(PID.TID 0000.0001) %MON exf_precip_max               =   2.9289143062421E-06
(PID.TID 0000.0001) %MON exf_precip_min               =   0.0000000000000E+00
(PID.TID 0000.0001) %MON exf_precip_mean              =   6.7068451983760E-08
(PID.TID 0000.0001) %MON exf_precip_sd                =   1.6028746628172E-07
(PID.TID 0000.0001) %MON exf_precip_del2              =   5.4774781724493E-11
(PID.TID 0000.0001) %MON exf_swflux_max               =   0.0000000000000E+00
(PID.TID 0000.0001) %MON exf_swflux_min               =  -7.1988881807433E+01
(PID.TID 0000.0001) %MON exf_swflux_mean              =  -3.7389887950330E+00
(PID.TID 0000.0001) %MON exf_swflux_sd                =   1.0699454502733E+01
(PID.TID 0000.0001) %MON exf_swflux_del2              =   3.4320714599111E-03
(PID.TID 0000.0001) %MON exf_swdown_max               =   7.9248296991317E+01
(PID.TID 0000.0001) %MON exf_swdown_min               =   0.0000000000000E+00
(PID.TID 0000.0001) %MON exf_swdown_mean              =   4.1165006457574E+00
(PID.TID 0000.0001) %MON exf_swdown_sd                =   1.1776578993895E+01
(PID.TID 0000.0001) %MON exf_swdown_del2              =   3.7784548933635E-03
(PID.TID 0000.0001) %MON exf_lwdown_max               =   4.0733014423999E+02
(PID.TID 0000.0001) %MON exf_lwdown_min               =   1.9122203281807E+02
(PID.TID 0000.0001) %MON exf_lwdown_mean              =   3.4299670790482E+02
(PID.TID 0000.0001) %MON exf_lwdown_sd                =   3.2929954880444E+01
(PID.TID 0000.0001) %MON exf_lwdown_del2              =   1.0524712802259E-01
(PID.TID 0000.0001) %MON exf_apressure_max            =   1.0263131900759E+05
(PID.TID 0000.0001) %MON exf_apressure_min            =   9.8722591767435E+04
(PID.TID 0000.0001) %MON exf_apressure_mean           =   1.0148048003830E+05
(PID.TID 0000.0001) %MON exf_apressure_sd             =   7.9751862515025E+02
(PID.TID 0000.0001) %MON exf_apressure_del2           =   3.1008740003152E+01
(PID.TID 0000.0001) %MON exf_runoff_max               =   4.6633690723924E-08
(PID.TID 0000.0001) %MON exf_runoff_min               =   0.0000000000000E+00
(PID.TID 0000.0001) %MON exf_runoff_mean              =   1.6070446344693E-09
(PID.TID 0000.0001) %MON exf_runoff_sd                =   5.4409705936606E-09
(PID.TID 0000.0001) %MON exf_runoff_del2              =   1.7602788524736E-12
(PID.TID 0000.0001) // =======================================================
(PID.TID 0000.0001) // End MONITOR EXF statistics
(PID.TID 0000.0001) // =======================================================
 cg2d: Sum(rhs),rhsMax =   7.84684211324724E+04  6.86353837304906E-02
 cg2d: Sum(rhs),rhsMax =   7.81367630318942E+04  6.80481233975450E-02
 cg2d: Sum(rhs),rhsMax =   7.77913516031504E+04  6.74509457478956E-02
 cg2d: Sum(rhs),rhsMax =   7.74322294181224E+04  6.68439094947294E-02
 cg2d: Sum(rhs),rhsMax =   7.70594408507803E+04  6.62274226645656E-02
 cg2d: Sum(rhs),rhsMax =   7.66730320710268E+04  6.56039118110426E-02
 cg2d: Sum(rhs),rhsMax =   7.62730510384573E+04  6.49714600922967E-02
 cg2d: Sum(rhs),rhsMax =   7.58595474957165E+04  6.43301849256964E-02
 cg2d: Sum(rhs),rhsMax =   7.54325729617802E+04  6.36802236095632E-02
 cg2d: Sum(rhs),rhsMax =   7.49921807248571E+04  6.30217285318164E-02
 cg2d: Sum(rhs),rhsMax =   7.45384258351858E+04  6.23571738304561E-02
 cg2d: Sum(rhs),rhsMax =   7.40713650974683E+04  6.16850626760772E-02
 cg2d: Sum(rhs),rhsMax =   7.35910570632226E+04  6.10049766048179E-02
 cg2d: Sum(rhs),rhsMax =   7.30975620227347E+04  6.03170350050876E-02
 cg2d: Sum(rhs),rhsMax =   7.25909419969572E+04  5.96213336073450E-02
 cg2d: Sum(rhs),rhsMax =   7.20712607290174E+04  5.89179473776444E-02
 cg2d: Sum(rhs),rhsMax =   7.15385836756490E+04  5.82069370672641E-02
 cg2d: Sum(rhs),rhsMax =   7.09929779982472E+04  5.74883559115155E-02
 cg2d: Sum(rhs),rhsMax =   7.04345125538713E+04  5.67622571250236E-02
 cg2d: Sum(rhs),rhsMax =   6.98632578858429E+04  5.60403702447717E-02
 cg2d: Sum(rhs),rhsMax =   6.92792862143000E+04  5.53184360489485E-02
 cg2d: Sum(rhs),rhsMax =   6.86826714263765E+04  5.45892420154083E-02
 cg2d: Sum(rhs),rhsMax =   6.80734890663069E+04  5.38528322287213E-02
 cg2d: Sum(rhs),rhsMax =   6.74518163251731E+04  5.31092743320152E-02
 cg2d: Sum(rhs),rhsMax =   6.68177320305915E+04  5.23586598600627E-02
 cg2d: Sum(rhs),rhsMax =   6.61713166360289E+04  5.16011039419942E-02
 cg2d: Sum(rhs),rhsMax =   6.55126522100604E+04  5.08367444880042E-02
 cg2d: Sum(rhs),rhsMax =   6.48418224252817E+04  5.00657408058153E-02
 cg2d: Sum(rhs),rhsMax =   6.41589125471415E+04  4.92882730412996E-02
 cg2d: Sum(rhs),rhsMax =   6.34640094224401E+04  4.85045399476185E-02
 cg2d: Sum(rhs),rhsMax =   6.27572014677677E+04  4.77147570896352E-02
 cg2d: Sum(rhs),rhsMax =   6.20385786575899E+04  4.69191567195159E-02
 cg2d: Sum(rhs),rhsMax =   6.13082325122769E+04  4.61179928157469E-02
 cg2d: Sum(rhs),rhsMax =   6.05662560858119E+04  4.53115424814952E-02
 cg2d: Sum(rhs),rhsMax =   5.98127439534133E+04  4.45001061769086E-02
 cg2d: Sum(rhs),rhsMax =   5.90477921988527E+04  4.36840057298142E-02
 cg2d: Sum(rhs),rhsMax =   5.82714984017058E+04  4.28635842786776E-02
 cg2d: Sum(rhs),rhsMax =   5.74839616242797E+04  4.20392055769541E-02
 cg2d: Sum(rhs),rhsMax =   5.66852823984778E+04  4.12112529132821E-02
 cg2d: Sum(rhs),rhsMax =   5.58755627123732E+04  4.03801240452573E-02
 cg2d: Sum(rhs),rhsMax =   5.50549059966906E+04  3.95462282968180E-02
 cg2d: Sum(rhs),rhsMax =   5.42234171110131E+04  3.87099845542471E-02
 cg2d: Sum(rhs),rhsMax =   5.33812023299173E+04  3.78724772743629E-02
 cg2d: Sum(rhs),rhsMax =   5.25283693288139E+04  3.70354627985460E-02
 cg2d: Sum(rhs),rhsMax =   5.16650271697184E+04  3.61975120377535E-02
(PID.TID 0000.0001)      cg2d_init_res =   7.21150526008463E-01
(PID.TID 0000.0001)      cg2d_iters(min,last) =      -1     151
(PID.TID 0000.0001)      cg2d_last_res =   1.78790572428465E-11
(PID.TID 0000.0001) // =======================================================
(PID.TID 0000.0001) // Begin MONITOR dynamic field statistics
(PID.TID 0000.0001) // =======================================================
(PID.TID 0000.0001) %MON time_tsnumber                =              15811605
(PID.TID 0000.0001) %MON time_secondsf                =   1.2649284000000E+09
(PID.TID 0000.0001) %MON dynstat_eta_max              =   1.2782915816060E+00
(PID.TID 0000.0001) %MON dynstat_eta_min              =  -2.2040058153058E+00
(PID.TID 0000.0001) %MON dynstat_eta_mean             =  -1.9525336696086E-01
(PID.TID 0000.0001) %MON dynstat_eta_sd               =   5.0898944987826E-01
(PID.TID 0000.0001) %MON dynstat_eta_del2             =   1.0256269651581E-06
(PID.TID 0000.0001) %MON dynstat_uvel_max             =   2.7968213757356E+00
(PID.TID 0000.0001) %MON dynstat_uvel_min             =  -2.7733016544725E+00
(PID.TID 0000.0001) %MON dynstat_uvel_mean            =  -1.0503464268520E-02
(PID.TID 0000.0001) %MON dynstat_uvel_sd              =   9.3513150447054E-02
(PID.TID 0000.0001) %MON dynstat_uvel_del2            =   1.8745904811211E-06
(PID.TID 0000.0001) %MON dynstat_vvel_max             =   2.8256541373362E+00
(PID.TID 0000.0001) %MON dynstat_vvel_min             =  -2.9702550079749E+00
(PID.TID 0000.0001) %MON dynstat_vvel_mean            =   3.7998359960598E-04
(PID.TID 0000.0001) %MON dynstat_vvel_sd              =   8.6310258026738E-02
(PID.TID 0000.0001) %MON dynstat_vvel_del2            =   1.7612899471540E-06
(PID.TID 0000.0001) %MON dynstat_wvel_max             =   4.8399378927904E-02
(PID.TID 0000.0001) %MON dynstat_wvel_min             =  -3.0441203690434E-02
(PID.TID 0000.0001) %MON dynstat_wvel_mean            =   2.2971753299509E-05
(PID.TID 0000.0001) %MON dynstat_wvel_sd              =   1.6393621771218E-03
(PID.TID 0000.0001) %MON dynstat_wvel_del2            =   9.7460828899113E-08
(PID.TID 0000.0001) %MON dynstat_theta_max            =   2.4966704067161E+01
(PID.TID 0000.0001) %MON dynstat_theta_min            =  -2.6913201138269E+00
(PID.TID 0000.0001) %MON dynstat_theta_mean           =   5.5834383174110E+00
(PID.TID 0000.0001) %MON dynstat_theta_sd             =   4.6769626695100E+00
(PID.TID 0000.0001) %MON dynstat_theta_del2           =   7.4847616289689E-06
(PID.TID 0000.0001) %MON dynstat_salt_max             =   8.9670475046750E+01
(PID.TID 0000.0001) %MON dynstat_salt_min             =   2.0152735707321E+00
(PID.TID 0000.0001) %MON dynstat_salt_mean            =   3.5191443219851E+01
(PID.TID 0000.0001) %MON dynstat_salt_sd              =   4.5289423947262E-01
(PID.TID 0000.0001) %MON dynstat_salt_del2            =   1.4982209732404E-06
(PID.TID 0000.0001) %MON dynstat_sst_max              =   2.4946013877904E+01
(PID.TID 0000.0001) %MON dynstat_sst_min              =  -2.6913201138269E+00
(PID.TID 0000.0001) %MON dynstat_sst_mean             =   1.7711217247068E+01
(PID.TID 0000.0001) %MON dynstat_sst_sd               =   3.4016588938112E+00
(PID.TID 0000.0001) %MON dynstat_sst_del2             =   9.7801554734167E-05
(PID.TID 0000.0001) %MON dynstat_sss_max              =   8.9666077219375E+01
(PID.TID 0000.0001) %MON dynstat_sss_min              =   2.0152735707321E+00
(PID.TID 0000.0001) %MON dynstat_sss_mean             =   3.6425434612485E+01
(PID.TID 0000.0001) %MON dynstat_sss_sd               =   4.5237562732136E-01
(PID.TID 0000.0001) %MON dynstat_sss_del2             =   1.8972754171384E-05
(PID.TID 0000.0001) %MON forcing_qnet_max             =   1.5194778346014E+03
(PID.TID 0000.0001) %MON forcing_qnet_min             =  -2.3038277204822E+02
(PID.TID 0000.0001) %MON forcing_qnet_mean            =   2.2966944545783E+02
(PID.TID 0000.0001) %MON forcing_qnet_sd              =   2.1467611565193E+02
(PID.TID 0000.0001) %MON forcing_qnet_del2            =   5.3833679442804E-03
(PID.TID 0000.0001) %MON forcing_qsw_max              =   0.0000000000000E+00
(PID.TID 0000.0001) %MON forcing_qsw_min              =  -2.1488885576802E+02
(PID.TID 0000.0001) %MON forcing_qsw_mean             =  -1.8796920515458E+01
(PID.TID 0000.0001) %MON forcing_qsw_sd               =   3.7986724713221E+01
(PID.TID 0000.0001) %MON forcing_qsw_del2             =   2.8938747223062E-05
(PID.TID 0000.0001) %MON forcing_empmr_max            =   3.5648509469304E-04
(PID.TID 0000.0001) %MON forcing_empmr_min            =  -3.1310821111767E-03
(PID.TID 0000.0001) %MON forcing_empmr_mean           =  -9.5281223076889E-06
(PID.TID 0000.0001) %MON forcing_empmr_sd             =   1.7540736865549E-04
(PID.TID 0000.0001) %MON forcing_empmr_del2           =   1.6641142039246E-09
(PID.TID 0000.0001) %MON forcing_fu_max               =   1.1652179579974E+00
(PID.TID 0000.0001) %MON forcing_fu_min               =  -4.7388351089082E-01
(PID.TID 0000.0001) %MON forcing_fu_mean              =   1.3434368072262E-01
(PID.TID 0000.0001) %MON forcing_fu_sd                =   1.8087546635492E-01
(PID.TID 0000.0001) %MON forcing_fu_del2              =   9.5791206421271E-07
(PID.TID 0000.0001) %MON forcing_fv_max               =   8.8947783093725E-01
(PID.TID 0000.0001) %MON forcing_fv_min               =  -5.8978674772198E-01
(PID.TID 0000.0001) %MON forcing_fv_mean              =   1.5072460927803E-02
(PID.TID 0000.0001) %MON forcing_fv_sd                =   1.4525128580683E-01
(PID.TID 0000.0001) %MON forcing_fv_del2              =   8.0837476773459E-07
(PID.TID 0000.0001) %MON trAdv_CFL_u_max              =   9.4838326700332E-02
(PID.TID 0000.0001) %MON trAdv_CFL_v_max              =   1.0260297243066E-01
(PID.TID 0000.0001) %MON trAdv_CFL_w_max              =   3.2823080597103E-01
(PID.TID 0000.0001) %MON advcfl_uvel_max              =   9.4838326177889E-02
(PID.TID 0000.0001) %MON advcfl_vvel_max              =   1.0259073971314E-01
(PID.TID 0000.0001) %MON advcfl_wvel_max              =   3.2276029253818E-01
(PID.TID 0000.0001) %MON advcfl_W_hf_max              =   3.2823080597103E-01
(PID.TID 0000.0001) %MON pe_b_mean                    =  -4.3824240947953E-03
(PID.TID 0000.0001) %MON ke_max                       =   4.4518536656018E+00
(PID.TID 0000.0001) %MON ke_mean                      =   8.1083687429383E-03
(PID.TID 0000.0001) %MON ke_vol                       =   4.6123795034297E+16
(PID.TID 0000.0001) %MON vort_r_min                   =  -1.3105124228595E-03
(PID.TID 0000.0001) %MON vort_r_max                   =   1.0191621843768E-03
(PID.TID 0000.0001) %MON vort_a_mean                  =   8.2145900023345E-05
(PID.TID 0000.0001) %MON vort_a_sd                    =   1.3983189522334E-05
(PID.TID 0000.0001) %MON vort_p_mean                  =   8.4437930698728E-05
(PID.TID 0000.0001) %MON vort_p_sd                    =   3.3997339109462E-05
(PID.TID 0000.0001) %MON surfExpan_theta_mean         =   7.4386415271458E-04
(PID.TID 0000.0001) %MON surfExpan_salt_mean          =   1.4878156537576E-03
(PID.TID 0000.0001) // =======================================================
(PID.TID 0000.0001) // End MONITOR dynamic field statistics
(PID.TID 0000.0001) // =======================================================
(PID.TID 0000.0001) // =======================================================
(PID.TID 0000.0001) // Begin OBCS MONITOR field statistics
(PID.TID 0000.0001) // =======================================================
(PID.TID 0000.0001) %MON obc_E_uVel_max               =  -1.9943093967502E-01
(PID.TID 0000.0001) %MON obc_E_uVel_min               =  -5.2874894007978E-01
(PID.TID 0000.0001) %MON obc_E_uVel_mean              =  -3.0384279586338E-01
(PID.TID 0000.0001) %MON obc_E_uVel_sd                =   6.9656611301788E-02
(PID.TID 0000.0001) %MON obc_E_uVel_Int               =  -2.0735602496897E+06
(PID.TID 0000.0001) %MON obc_N_vVel_max               =   5.4964801888582E-01
(PID.TID 0000.0001) %MON obc_N_vVel_min               =  -4.7666694097092E-01
(PID.TID 0000.0001) %MON obc_N_vVel_mean              =  -1.2367825487286E-02
(PID.TID 0000.0001) %MON obc_N_vVel_sd                =   3.9586394559805E-02
(PID.TID 0000.0001) %MON obc_N_vVel_Int               =  -1.7648447546667E+08
(PID.TID 0000.0001) %MON obc_S_vVel_max               =   1.3398088234939E+00
(PID.TID 0000.0001) %MON obc_S_vVel_min               =  -1.5203069441300E-01
(PID.TID 0000.0001) %MON obc_S_vVel_mean              =   9.3787019667367E-03
(PID.TID 0000.0001) %MON obc_S_vVel_sd                =   2.9482055422939E-02
(PID.TID 0000.0001) %MON obc_S_vVel_Int               =   2.8518605970533E+08
(PID.TID 0000.0001) %MON obc_E_theta_max              =   1.5981519699097E+01
(PID.TID 0000.0001) %MON obc_E_theta_min              =   1.3104037284851E+01
(PID.TID 0000.0001) %MON obc_E_theta_mean             =   1.4974089986960E+01
(PID.TID 0000.0001) %MON obc_E_theta_sd               =   6.0075505804650E-01
(PID.TID 0000.0001) %MON obc_N_theta_max              =   1.5721092224121E+01
(PID.TID 0000.0001) %MON obc_N_theta_min              =   9.7373789548874E-01
(PID.TID 0000.0001) %MON obc_N_theta_mean             =   5.3443110148828E+00
(PID.TID 0000.0001) %MON obc_N_theta_sd               =   3.5834807335781E+00
(PID.TID 0000.0001) %MON obc_S_theta_max              =   2.4979528427124E+01
(PID.TID 0000.0001) %MON obc_S_theta_min              =   1.5124862194061E+00
(PID.TID 0000.0001) %MON obc_S_theta_mean             =   5.4273114502690E+00
(PID.TID 0000.0001) %MON obc_S_theta_sd               =   5.1694562801555E+00
(PID.TID 0000.0001) %MON obc_E_salt_max               =   3.8703720092773E+01
(PID.TID 0000.0001) %MON obc_E_salt_min               =   3.6289142608643E+01
(PID.TID 0000.0001) %MON obc_E_salt_mean              =   3.6643778075730E+01
(PID.TID 0000.0001) %MON obc_E_salt_sd                =   5.5037722650442E-01
(PID.TID 0000.0001) %MON obc_N_salt_max               =   3.6066974639893E+01
(PID.TID 0000.0001) %MON obc_N_salt_min               =   3.2878395080566E+01
(PID.TID 0000.0001) %MON obc_N_salt_mean              =   3.5117165924185E+01
(PID.TID 0000.0001) %MON obc_N_salt_sd                =   3.1541903364831E-01
(PID.TID 0000.0001) %MON obc_S_salt_max               =   3.7600940704346E+01
(PID.TID 0000.0001) %MON obc_S_salt_min               =   3.4853485107422E+01
(PID.TID 0000.0001) %MON obc_S_salt_mean              =   3.5185630803177E+01
(PID.TID 0000.0001) %MON obc_S_salt_sd                =   4.9502018312198E-01
(PID.TID 0000.0001) // =======================================================
(PID.TID 0000.0001) // End OBCS MONITOR field statistics
(PID.TID 0000.0001) // =======================================================
(PID.TID 0000.0001) // =======================================================
(PID.TID 0000.0001) // Begin MONITOR ptracer field statistics
(PID.TID 0000.0001) // =======================================================
(PID.TID 0000.0001) %MON trcstat_ptracer01_max        =   0.0000000000000E+00
(PID.TID 0000.0001) %MON trcstat_ptracer01_min        =   0.0000000000000E+00
(PID.TID 0000.0001) %MON trcstat_ptracer01_mean       =   0.0000000000000E+00
(PID.TID 0000.0001) %MON trcstat_ptracer01_sd         =   0.0000000000000E+00
(PID.TID 0000.0001) %MON trcstat_ptracer01_del2       =   0.0000000000000E+00
(PID.TID 0000.0001) %MON trcstat_ptracer02_max        =   0.0000000000000E+00
(PID.TID 0000.0001) %MON trcstat_ptracer02_min        =   0.0000000000000E+00
(PID.TID 0000.0001) %MON trcstat_ptracer02_mean       =   0.0000000000000E+00
(PID.TID 0000.0001) %MON trcstat_ptracer02_sd         =   0.0000000000000E+00
(PID.TID 0000.0001) %MON trcstat_ptracer02_del2       =   0.0000000000000E+00
(PID.TID 0000.0001) // =======================================================
(PID.TID 0000.0001) // End MONITOR ptracer field statistics
(PID.TID 0000.0001) // =======================================================
(PID.TID 0000.0001) // =======================================================
(PID.TID 0000.0001) // Begin MONITOR EXF statistics
(PID.TID 0000.0001) // =======================================================
(PID.TID 0000.0001) %MON exf_tsnumber                 =              15811605
(PID.TID 0000.0001) %MON exf_time_sec                 =   1.2649284000000E+09
(PID.TID 0000.0001) %MON exf_ustress_max              =   1.1657934082352E+00
(PID.TID 0000.0001) %MON exf_ustress_min              =  -4.7907537335860E-01
(PID.TID 0000.0001) %MON exf_ustress_mean             =   1.3430940071429E-01
(PID.TID 0000.0001) %MON exf_ustress_sd               =   1.8091541952616E-01
(PID.TID 0000.0001) %MON exf_ustress_del2             =   1.0397811849100E-06
(PID.TID 0000.0001) %MON exf_vstress_max              =   9.0899419254842E-01
(PID.TID 0000.0001) %MON exf_vstress_min              =  -5.8586867969291E-01
(PID.TID 0000.0001) %MON exf_vstress_mean             =   1.5040612127978E-02
(PID.TID 0000.0001) %MON exf_vstress_sd               =   1.4547852832658E-01
(PID.TID 0000.0001) %MON exf_vstress_del2             =   8.9218170559821E-07
(PID.TID 0000.0001) %MON exf_hflux_max                =   1.4864270938275E+03
(PID.TID 0000.0001) %MON exf_hflux_min                =  -1.8223615374129E+02
(PID.TID 0000.0001) %MON exf_hflux_mean               =   2.2873785111592E+02
(PID.TID 0000.0001) %MON exf_hflux_sd                 =   2.1045248780701E+02
(PID.TID 0000.0001) %MON exf_hflux_del2               =   9.4807568769311E-02
(PID.TID 0000.0001) %MON exf_sflux_max                =   3.5659652974184E-07
(PID.TID 0000.0001) %MON exf_sflux_min                =  -3.1494478065221E-06
(PID.TID 0000.0001) %MON exf_sflux_mean               =  -9.5650454960692E-09
(PID.TID 0000.0001) %MON exf_sflux_sd                 =   1.7551842871146E-07
(PID.TID 0000.0001) %MON exf_sflux_del2               =   5.5152190432021E-11
(PID.TID 0000.0001) %MON exf_uwind_max                =   2.1820874510585E+01
(PID.TID 0000.0001) %MON exf_uwind_min                =  -1.5768354084259E+01
(PID.TID 0000.0001) %MON exf_uwind_mean               =   5.8037951968937E+00
(PID.TID 0000.0001) %MON exf_uwind_sd                 =   6.2904711926134E+00
(PID.TID 0000.0001) %MON exf_uwind_del2               =   2.6559808141000E-03
(PID.TID 0000.0001) %MON exf_vwind_max                =   1.9493429877845E+01
(PID.TID 0000.0001) %MON exf_vwind_min                =  -1.5442692221533E+01
(PID.TID 0000.0001) %MON exf_vwind_mean               =   7.4008631818738E-01
(PID.TID 0000.0001) %MON exf_vwind_sd                 =   6.4954432187185E+00
(PID.TID 0000.0001) %MON exf_vwind_del2               =   2.0013152844486E-03
(PID.TID 0000.0001) %MON exf_wspeed_max               =   2.2789445158449E+01
(PID.TID 0000.0001) %MON exf_wspeed_min               =   1.8088447014271E-02
(PID.TID 0000.0001) %MON exf_wspeed_mean              =   9.8709333442650E+00
(PID.TID 0000.0001) %MON exf_wspeed_sd                =   4.3078128779729E+00
(PID.TID 0000.0001) %MON exf_wspeed_del2              =   3.3253433382059E-03
(PID.TID 0000.0001) %MON exf_atemp_max                =   2.9671290782746E+02
(PID.TID 0000.0001) %MON exf_atemp_min                =   2.6779152900126E+02
(PID.TID 0000.0001) %MON exf_atemp_mean               =   2.8898911134621E+02
(PID.TID 0000.0001) %MON exf_atemp_sd                 =   4.8791024549434E+00
(PID.TID 0000.0001) %MON exf_atemp_del2               =   5.0229375948658E-03
(PID.TID 0000.0001) %MON exf_aqh_max                  =   1.5048312693010E-02
(PID.TID 0000.0001) %MON exf_aqh_min                  =   1.4723408726361E-03
(PID.TID 0000.0001) %MON exf_aqh_mean                 =   8.6545761614202E-03
(PID.TID 0000.0001) %MON exf_aqh_sd                   =   2.9934784278532E-03
(PID.TID 0000.0001) %MON exf_aqh_del2                 =   2.7846938031652E-06
(PID.TID 0000.0001) %MON exf_lwflux_max               =   1.7098628991833E+02
(PID.TID 0000.0001) %MON exf_lwflux_min               =  -4.8934354926333E+00
(PID.TID 0000.0001) %MON exf_lwflux_mean              =   6.0355490328787E+01
(PID.TID 0000.0001) %MON exf_lwflux_sd                =   2.8265901358572E+01
(PID.TID 0000.0001) %MON exf_lwflux_del2              =   2.0242708220574E-02
(PID.TID 0000.0001) %MON exf_evap_max                 =   3.8284560396292E-07
(PID.TID 0000.0001) %MON exf_evap_min                 =  -5.1424297590432E-08
(PID.TID 0000.0001) %MON exf_evap_mean                =   6.2905988975717E-08
(PID.TID 0000.0001) %MON exf_evap_sd                  =   5.4954505818842E-08
(PID.TID 0000.0001) %MON exf_evap_del2                =   2.5458900251913E-11
(PID.TID 0000.0001) %MON exf_precip_max               =   3.2211741727178E-06
(PID.TID 0000.0001) %MON exf_precip_min               =   0.0000000000000E+00
(PID.TID 0000.0001) %MON exf_precip_mean              =   7.0863989837317E-08
(PID.TID 0000.0001) %MON exf_precip_sd                =   1.6749870830935E-07
(PID.TID 0000.0001) %MON exf_precip_del2              =   5.7255676556514E-11
(PID.TID 0000.0001) %MON exf_swflux_max               =   0.0000000000000E+00
(PID.TID 0000.0001) %MON exf_swflux_min               =  -2.1905836371176E+02
(PID.TID 0000.0001) %MON exf_swflux_mean              =  -1.9330536822825E+01
(PID.TID 0000.0001) %MON exf_swflux_sd                =   3.8827271673805E+01
(PID.TID 0000.0001) %MON exf_swflux_del2              =   1.3105537204330E-02
(PID.TID 0000.0001) %MON exf_swdown_max               =   2.4004881270676E+02
(PID.TID 0000.0001) %MON exf_swdown_min               =   0.0000000000000E+00
(PID.TID 0000.0001) %MON exf_swdown_mean              =   2.1284478224825E+01
(PID.TID 0000.0001) %MON exf_swdown_sd                =   4.2715905294734E+01
(PID.TID 0000.0001) %MON exf_swdown_del2              =   1.4424168836485E-02
(PID.TID 0000.0001) %MON exf_lwdown_max               =   4.0646503234248E+02
(PID.TID 0000.0001) %MON exf_lwdown_min               =   1.8880660801240E+02
(PID.TID 0000.0001) %MON exf_lwdown_mean              =   3.4392127620519E+02
(PID.TID 0000.0001) %MON exf_lwdown_sd                =   3.3182517165223E+01
(PID.TID 0000.0001) %MON exf_lwdown_del2              =   1.0552834334665E-01
(PID.TID 0000.0001) %MON exf_apressure_max            =   1.0268175092818E+05
(PID.TID 0000.0001) %MON exf_apressure_min            =   9.8654248062022E+04
(PID.TID 0000.0001) %MON exf_apressure_mean           =   1.0147268589593E+05
(PID.TID 0000.0001) %MON exf_apressure_sd             =   8.2599706456306E+02
(PID.TID 0000.0001) %MON exf_apressure_del2           =   3.1005948276707E+01
(PID.TID 0000.0001) %MON exf_runoff_max               =   4.6633690723924E-08
(PID.TID 0000.0001) %MON exf_runoff_min               =   0.0000000000000E+00
(PID.TID 0000.0001) %MON exf_runoff_mean              =   1.6070446344693E-09
(PID.TID 0000.0001) %MON exf_runoff_sd                =   5.4409705936606E-09
(PID.TID 0000.0001) %MON exf_runoff_del2              =   1.7602788524736E-12
(PID.TID 0000.0001) // =======================================================
(PID.TID 0000.0001) // End MONITOR EXF statistics
(PID.TID 0000.0001) // =======================================================
 cg2d: Sum(rhs),rhsMax =   5.07912862867681E+04  3.53590348892630E-02
 cg2d: Sum(rhs),rhsMax =   4.99072584716315E+04  3.45204190671593E-02
 cg2d: Sum(rhs),rhsMax =   4.90130568586825E+04  3.36820300995800E-02
 cg2d: Sum(rhs),rhsMax =   4.81087959100926E+04  3.28442070447006E-02
 cg2d: Sum(rhs),rhsMax =   4.71945914006622E+04  3.20072587273657E-02
 cg2d: Sum(rhs),rhsMax =   4.62705604025758E+04  3.11714616185063E-02
 cg2d: Sum(rhs),rhsMax =   4.53368212699315E+04  3.03370609910703E-02
 cg2d: Sum(rhs),rhsMax =   4.43934936231673E+04  2.95042740922927E-02
 cg2d: Sum(rhs),rhsMax =   4.34406983332743E+04  2.86732952586729E-02
 cg2d: Sum(rhs),rhsMax =   4.24785575059258E+04  2.78443007175400E-02
 cg2d: Sum(rhs),rhsMax =   4.15071944653806E+04  2.70174500014289E-02
 cg2d: Sum(rhs),rhsMax =   4.05267337382999E+04  2.61928878460381E-02
 cg2d: Sum(rhs),rhsMax =   3.95373010373792E+04  2.53707467404164E-02
 cg2d: Sum(rhs),rhsMax =   3.85390232448586E+04  2.45511440493836E-02
 cg2d: Sum(rhs),rhsMax =   3.75320283958692E+04  2.37341771635647E-02
 cg2d: Sum(rhs),rhsMax =   3.65164456616756E+04  2.29199188625976E-02
 cg2d: Sum(rhs),rhsMax =   3.54924053327355E+04  2.21084137091216E-02
 cg2d: Sum(rhs),rhsMax =   3.44600388016627E+04  2.12996770799774E-02
 cg2d: Sum(rhs),rhsMax =   3.34194785460415E+04  2.04936981178466E-02
 cg2d: Sum(rhs),rhsMax =   3.23708581111126E+04  1.96904454325303E-02
 cg2d: Sum(rhs),rhsMax =   3.13143120923303E+04  1.88898766369566E-02
 cg2d: Sum(rhs),rhsMax =   3.02499761178067E+04  1.80919463323344E-02
 cg2d: Sum(rhs),rhsMax =   2.91779868306137E+04  1.72966147167791E-02
 cg2d: Sum(rhs),rhsMax =   2.80984818709784E+04  1.65038530216894E-02
 cg2d: Sum(rhs),rhsMax =   2.70115998583639E+04  1.57136467217984E-02
 cg2d: Sum(rhs),rhsMax =   2.59174803734196E+04  1.49259969858706E-02
 cg2d: Sum(rhs),rhsMax =   2.48162639398351E+04  1.41409202862623E-02
 cg2d: Sum(rhs),rhsMax =   2.37080920060764E+04  1.33584468345635E-02
 cg2d: Sum(rhs),rhsMax =   2.25931069270138E+04  1.25786193646031E-02
 cg2d: Sum(rhs),rhsMax =   2.14714519454400E+04  1.18014923050402E-02
 cg2d: Sum(rhs),rhsMax =   2.03432711735058E+04  1.10271308064195E-02
 cg2d: Sum(rhs),rhsMax =   1.92087095740240E+04  1.02556111188072E-02
 cg2d: Sum(rhs),rhsMax =   1.80679129417068E+04  9.48702051631364E-03
 cg2d: Sum(rhs),rhsMax =   1.69210278842849E+04  8.72145700298021E-03
 cg2d: Sum(rhs),rhsMax =   1.57682018035490E+04  7.95902926940763E-03
 cg2d: Sum(rhs),rhsMax =   1.46095828762839E+04  7.19985754785653E-03
 cg2d: Sum(rhs),rhsMax =   1.34453200351429E+04  6.44407555032206E-03
 cg2d: Sum(rhs),rhsMax =   1.22755629494016E+04  5.69183275861061E-03
 cg2d: Sum(rhs),rhsMax =   1.11004620056628E+04  4.94329609846104E-03
 cg2d: Sum(rhs),rhsMax =   9.92016828845540E+03  4.19865056805809E-03
 cg2d: Sum(rhs),rhsMax =   8.73483356077390E+03  3.45809959132499E-03
 cg2d: Sum(rhs),rhsMax =   7.54461024452271E+03  2.72186416946224E-03
 cg2d: Sum(rhs),rhsMax =   6.34965140092007E+03  1.99018336462179E-03
 cg2d: Sum(rhs),rhsMax =   5.15011071078985E+03  1.90270983427980E-03
 cg2d: Sum(rhs),rhsMax =   3.94614245482721E+03  2.64257736258128E-03
(PID.TID 0000.0001)      cg2d_init_res =   9.14921501506880E-01
(PID.TID 0000.0001)      cg2d_iters(min,last) =      -1     153
(PID.TID 0000.0001)      cg2d_last_res =   1.81355935541751E-11
(PID.TID 0000.0001) // =======================================================
(PID.TID 0000.0001) // Begin MONITOR dynamic field statistics
(PID.TID 0000.0001) // =======================================================
(PID.TID 0000.0001) %MON time_tsnumber                =              15811650
(PID.TID 0000.0001) %MON time_secondsf                =   1.2649320000000E+09
(PID.TID 0000.0001) %MON dynstat_eta_max              =   1.4906825502122E+00
(PID.TID 0000.0001) %MON dynstat_eta_min              =  -2.3983200678198E+00
(PID.TID 0000.0001) %MON dynstat_eta_mean             =  -1.4913330022670E-02
(PID.TID 0000.0001) %MON dynstat_eta_sd               =   5.0609851209004E-01
(PID.TID 0000.0001) %MON dynstat_eta_del2             =   1.0522831744843E-06
(PID.TID 0000.0001) %MON dynstat_uvel_max             =   2.7579411138487E+00
(PID.TID 0000.0001) %MON dynstat_uvel_min             =  -2.7595875741843E+00
(PID.TID 0000.0001) %MON dynstat_uvel_mean            =  -3.6081809027555E-03
(PID.TID 0000.0001) %MON dynstat_uvel_sd              =   9.3500331992383E-02
(PID.TID 0000.0001) %MON dynstat_uvel_del2            =   1.8797448174185E-06
(PID.TID 0000.0001) %MON dynstat_vvel_max             =   2.8556176359424E+00
(PID.TID 0000.0001) %MON dynstat_vvel_min             =  -2.9761715322277E+00
(PID.TID 0000.0001) %MON dynstat_vvel_mean            =   6.1637826292401E-03
(PID.TID 0000.0001) %MON dynstat_vvel_sd              =   8.6215037046043E-02
(PID.TID 0000.0001) %MON dynstat_vvel_del2            =   1.7637005124345E-06
(PID.TID 0000.0001) %MON dynstat_wvel_max             =   4.4107524527000E-02
(PID.TID 0000.0001) %MON dynstat_wvel_min             =  -3.0517906223055E-02
(PID.TID 0000.0001) %MON dynstat_wvel_mean            =   3.3050624649915E-05
(PID.TID 0000.0001) %MON dynstat_wvel_sd              =   1.6440618884638E-03
(PID.TID 0000.0001) %MON dynstat_wvel_del2            =   9.7913428496029E-08
(PID.TID 0000.0001) %MON dynstat_theta_max            =   2.4966237210868E+01
(PID.TID 0000.0001) %MON dynstat_theta_min            =  -2.7196709592595E+00
(PID.TID 0000.0001) %MON dynstat_theta_mean           =   5.5828610142131E+00
(PID.TID 0000.0001) %MON dynstat_theta_sd             =   4.6762109804397E+00
(PID.TID 0000.0001) %MON dynstat_theta_del2           =   7.4812439790856E-06
(PID.TID 0000.0001) %MON dynstat_salt_max             =   8.9667263637971E+01
(PID.TID 0000.0001) %MON dynstat_salt_min             =   2.0152926844243E+00
(PID.TID 0000.0001) %MON dynstat_salt_mean            =   3.5191388092228E+01
(PID.TID 0000.0001) %MON dynstat_salt_sd              =   4.5281606155365E-01
(PID.TID 0000.0001) %MON dynstat_salt_del2            =   1.4967288159422E-06
(PID.TID 0000.0001) %MON dynstat_sst_max              =   2.4944357307084E+01
(PID.TID 0000.0001) %MON dynstat_sst_min              =  -2.7196709592595E+00
(PID.TID 0000.0001) %MON dynstat_sst_mean             =   1.7709533383207E+01
(PID.TID 0000.0001) %MON dynstat_sst_sd               =   3.4002087226023E+00
(PID.TID 0000.0001) %MON dynstat_sst_del2             =   9.7843662366762E-05
(PID.TID 0000.0001) %MON dynstat_sss_max              =   8.9657576128858E+01
(PID.TID 0000.0001) %MON dynstat_sss_min              =   2.0152926844243E+00
(PID.TID 0000.0001) %MON dynstat_sss_mean             =   3.6425415467344E+01
(PID.TID 0000.0001) %MON dynstat_sss_sd               =   4.5259746585044E-01
(PID.TID 0000.0001) %MON dynstat_sss_del2             =   1.9062921671891E-05
(PID.TID 0000.0001) %MON forcing_qnet_max             =   1.5650979308430E+03
(PID.TID 0000.0001) %MON forcing_qnet_min             =  -2.8415869283507E+02
(PID.TID 0000.0001) %MON forcing_qnet_mean            =   1.9771958785241E+02
(PID.TID 0000.0001) %MON forcing_qnet_sd              =   2.3571791457924E+02
(PID.TID 0000.0001) %MON forcing_qnet_del2            =   5.4666158817924E-03
(PID.TID 0000.0001) %MON forcing_qsw_max              =   0.0000000000000E+00
(PID.TID 0000.0001) %MON forcing_qsw_min              =  -3.9122051522857E+02
(PID.TID 0000.0001) %MON forcing_qsw_mean             =  -5.3228113075043E+01
(PID.TID 0000.0001) %MON forcing_qsw_sd               =   7.4977182424889E+01
(PID.TID 0000.0001) %MON forcing_qsw_del2             =   7.0249484353626E-05
(PID.TID 0000.0001) %MON forcing_empmr_max            =   3.7473565620988E-04
(PID.TID 0000.0001) %MON forcing_empmr_min            =  -3.1542026839225E-03
(PID.TID 0000.0001) %MON forcing_empmr_mean           =  -1.0877644111798E-05
(PID.TID 0000.0001) %MON forcing_empmr_sd             =   1.7853845840408E-04
(PID.TID 0000.0001) %MON forcing_empmr_del2           =   1.7160878290698E-09
(PID.TID 0000.0001) %MON forcing_fu_max               =   1.0180409388654E+00
(PID.TID 0000.0001) %MON forcing_fu_min               =  -4.5600154160843E-01
(PID.TID 0000.0001) %MON forcing_fu_mean              =   1.3024610576370E-01
(PID.TID 0000.0001) %MON forcing_fu_sd                =   1.6856758065622E-01
(PID.TID 0000.0001) %MON forcing_fu_del2              =   9.3724071582767E-07
(PID.TID 0000.0001) %MON forcing_fv_max               =   8.6977474976280E-01
(PID.TID 0000.0001) %MON forcing_fv_min               =  -5.0859990698197E-01
(PID.TID 0000.0001) %MON forcing_fv_mean              =   1.8128316472071E-02
(PID.TID 0000.0001) %MON forcing_fv_sd                =   1.4632998990471E-01
(PID.TID 0000.0001) %MON forcing_fv_del2              =   8.1626353091171E-07
(PID.TID 0000.0001) %MON trAdv_CFL_u_max              =   9.3497078369675E-02
(PID.TID 0000.0001) %MON trAdv_CFL_v_max              =   1.0280733039489E-01
(PID.TID 0000.0001) %MON trAdv_CFL_w_max              =   3.7939792320176E-01
(PID.TID 0000.0001) %MON advcfl_uvel_max              =   9.3497077854624E-02
(PID.TID 0000.0001) %MON advcfl_vvel_max              =   1.0279509273940E-01
(PID.TID 0000.0001) %MON advcfl_wvel_max              =   3.8336878633708E-01
(PID.TID 0000.0001) %MON advcfl_W_hf_max              =   3.8821283484902E-01
(PID.TID 0000.0001) %MON pe_b_mean                    =  -4.1341553150539E-05
(PID.TID 0000.0001) %MON ke_max                       =   4.4357370017965E+00
(PID.TID 0000.0001) %MON ke_mean                      =   8.0694158260793E-03
(PID.TID 0000.0001) %MON ke_vol                       =   4.6123795034297E+16
(PID.TID 0000.0001) %MON vort_r_min                   =  -1.6290004322088E-03
(PID.TID 0000.0001) %MON vort_r_max                   =   1.2222893422300E-03
(PID.TID 0000.0001) %MON vort_a_mean                  =   8.2145902905344E-05
(PID.TID 0000.0001) %MON vort_a_sd                    =   1.3981005313758E-05
(PID.TID 0000.0001) %MON vort_p_mean                  =   8.4437933661141E-05
(PID.TID 0000.0001) %MON vort_p_sd                    =   3.3967435255765E-05
(PID.TID 0000.0001) %MON surfExpan_theta_mean         =   9.9221873841061E-04
(PID.TID 0000.0001) %MON surfExpan_salt_mean          =   2.0720367231714E-03
(PID.TID 0000.0001) // =======================================================
(PID.TID 0000.0001) // End MONITOR dynamic field statistics
(PID.TID 0000.0001) // =======================================================
(PID.TID 0000.0001) // =======================================================
(PID.TID 0000.0001) // Begin OBCS MONITOR field statistics
(PID.TID 0000.0001) // =======================================================
(PID.TID 0000.0001) %MON obc_E_uVel_max               =  -3.6036102590453E-01
(PID.TID 0000.0001) %MON obc_E_uVel_min               =  -7.2867489141252E-01
(PID.TID 0000.0001) %MON obc_E_uVel_mean              =  -4.9681069345547E-01
(PID.TID 0000.0001) %MON obc_E_uVel_sd                =   6.9853923557487E-02
(PID.TID 0000.0001) %MON obc_E_uVel_Int               =  -3.3904601971646E+06
(PID.TID 0000.0001) %MON obc_N_vVel_max               =   5.6307463936836E-01
(PID.TID 0000.0001) %MON obc_N_vVel_min               =  -2.4338239484240E-01
(PID.TID 0000.0001) %MON obc_N_vVel_mean              =  -9.8116792665733E-03
(PID.TID 0000.0001) %MON obc_N_vVel_sd                =   3.8693008089484E-02
(PID.TID 0000.0001) %MON obc_N_vVel_Int               =  -1.4000917708521E+08
(PID.TID 0000.0001) %MON obc_S_vVel_max               =   1.3153026518365E+00
(PID.TID 0000.0001) %MON obc_S_vVel_min               =  -1.5142728540271E-01
(PID.TID 0000.0001) %MON obc_S_vVel_mean              =   1.6552038053420E-02
(PID.TID 0000.0001) %MON obc_S_vVel_sd                =   2.9011059874827E-02
(PID.TID 0000.0001) %MON obc_S_vVel_Int               =   5.0331170873000E+08
(PID.TID 0000.0001) %MON obc_E_theta_max              =   1.5981519699097E+01
(PID.TID 0000.0001) %MON obc_E_theta_min              =   1.3104037284851E+01
(PID.TID 0000.0001) %MON obc_E_theta_mean             =   1.4974089986960E+01
(PID.TID 0000.0001) %MON obc_E_theta_sd               =   6.0075505804650E-01
(PID.TID 0000.0001) %MON obc_N_theta_max              =   1.5721092224121E+01
(PID.TID 0000.0001) %MON obc_N_theta_min              =   9.7373789548874E-01
(PID.TID 0000.0001) %MON obc_N_theta_mean             =   5.3443110148828E+00
(PID.TID 0000.0001) %MON obc_N_theta_sd               =   3.5834807335781E+00
(PID.TID 0000.0001) %MON obc_S_theta_max              =   2.4979528427124E+01
(PID.TID 0000.0001) %MON obc_S_theta_min              =   1.5124862194061E+00
(PID.TID 0000.0001) %MON obc_S_theta_mean             =   5.4273114502690E+00
(PID.TID 0000.0001) %MON obc_S_theta_sd               =   5.1694562801555E+00
(PID.TID 0000.0001) %MON obc_E_salt_max               =   3.8703720092773E+01
(PID.TID 0000.0001) %MON obc_E_salt_min               =   3.6289142608643E+01
(PID.TID 0000.0001) %MON obc_E_salt_mean              =   3.6643778075730E+01
(PID.TID 0000.0001) %MON obc_E_salt_sd                =   5.5037722650442E-01
(PID.TID 0000.0001) %MON obc_N_salt_max               =   3.6066974639893E+01
(PID.TID 0000.0001) %MON obc_N_salt_min               =   3.2878395080566E+01
(PID.TID 0000.0001) %MON obc_N_salt_mean              =   3.5117165924185E+01
(PID.TID 0000.0001) %MON obc_N_salt_sd                =   3.1541903364831E-01
(PID.TID 0000.0001) %MON obc_S_salt_max               =   3.7600940704346E+01
(PID.TID 0000.0001) %MON obc_S_salt_min               =   3.4853485107422E+01
(PID.TID 0000.0001) %MON obc_S_salt_mean              =   3.5185630803177E+01
(PID.TID 0000.0001) %MON obc_S_salt_sd                =   4.9502018312198E-01
(PID.TID 0000.0001) // =======================================================
(PID.TID 0000.0001) // End OBCS MONITOR field statistics
(PID.TID 0000.0001) // =======================================================
(PID.TID 0000.0001) // =======================================================
(PID.TID 0000.0001) // Begin MONITOR ptracer field statistics
(PID.TID 0000.0001) // =======================================================
(PID.TID 0000.0001) %MON trcstat_ptracer01_max        =   0.0000000000000E+00
(PID.TID 0000.0001) %MON trcstat_ptracer01_min        =   0.0000000000000E+00
(PID.TID 0000.0001) %MON trcstat_ptracer01_mean       =   0.0000000000000E+00
(PID.TID 0000.0001) %MON trcstat_ptracer01_sd         =   0.0000000000000E+00
(PID.TID 0000.0001) %MON trcstat_ptracer01_del2       =   0.0000000000000E+00
(PID.TID 0000.0001) %MON trcstat_ptracer02_max        =   0.0000000000000E+00
(PID.TID 0000.0001) %MON trcstat_ptracer02_min        =   0.0000000000000E+00
(PID.TID 0000.0001) %MON trcstat_ptracer02_mean       =   0.0000000000000E+00
(PID.TID 0000.0001) %MON trcstat_ptracer02_sd         =   0.0000000000000E+00
(PID.TID 0000.0001) %MON trcstat_ptracer02_del2       =   0.0000000000000E+00
(PID.TID 0000.0001) // =======================================================
(PID.TID 0000.0001) // End MONITOR ptracer field statistics
(PID.TID 0000.0001) // =======================================================
(PID.TID 0000.0001) // =======================================================
(PID.TID 0000.0001) // Begin MONITOR EXF statistics
(PID.TID 0000.0001) // =======================================================
(PID.TID 0000.0001) %MON exf_tsnumber                 =              15811650
(PID.TID 0000.0001) %MON exf_time_sec                 =   1.2649320000000E+09
(PID.TID 0000.0001) %MON exf_ustress_max              =   1.0213080262256E+00
(PID.TID 0000.0001) %MON exf_ustress_min              =  -4.5972489653946E-01
(PID.TID 0000.0001) %MON exf_ustress_mean             =   1.3017476143440E-01
(PID.TID 0000.0001) %MON exf_ustress_sd               =   1.6845023653785E-01
(PID.TID 0000.0001) %MON exf_ustress_del2             =   1.0196649984429E-06
(PID.TID 0000.0001) %MON exf_vstress_max              =   8.8521905197014E-01
(PID.TID 0000.0001) %MON exf_vstress_min              =  -5.0857427380717E-01
(PID.TID 0000.0001) %MON exf_vstress_mean             =   1.8207644983189E-02
(PID.TID 0000.0001) %MON exf_vstress_sd               =   1.4652304595301E-01
(PID.TID 0000.0001) %MON exf_vstress_del2             =   9.0247257993832E-07
(PID.TID 0000.0001) %MON exf_hflux_max                =   1.5302943981898E+03
(PID.TID 0000.0001) %MON exf_hflux_min                =  -2.7533383723005E+02
(PID.TID 0000.0001) %MON exf_hflux_mean               =   1.9636193356187E+02
(PID.TID 0000.0001) %MON exf_hflux_sd                 =   2.3219081738312E+02
(PID.TID 0000.0001) %MON exf_hflux_del2               =   9.2702754117741E-02
(PID.TID 0000.0001) %MON exf_sflux_max                =   3.7516477729999E-07
(PID.TID 0000.0001) %MON exf_sflux_min                =  -3.1626554009036E-06
(PID.TID 0000.0001) %MON exf_sflux_mean               =  -1.0869993765839E-08
(PID.TID 0000.0001) %MON exf_sflux_sd                 =   1.7854789081636E-07
(PID.TID 0000.0001) %MON exf_sflux_del2               =   5.6094286428733E-11
(PID.TID 0000.0001) %MON exf_uwind_max                =   2.0940186031824E+01
(PID.TID 0000.0001) %MON exf_uwind_min                =  -1.4788818271162E+01
(PID.TID 0000.0001) %MON exf_uwind_mean               =   5.8659651038007E+00
(PID.TID 0000.0001) %MON exf_uwind_sd                 =   6.1374896039994E+00
(PID.TID 0000.0001) %MON exf_uwind_del2               =   2.6337563548958E-03
(PID.TID 0000.0001) %MON exf_vwind_max                =   1.9119094258842E+01
(PID.TID 0000.0001) %MON exf_vwind_min                =  -1.5212840947434E+01
(PID.TID 0000.0001) %MON exf_vwind_mean               =   9.2350671089314E-01
(PID.TID 0000.0001) %MON exf_vwind_sd                 =   6.4912482505558E+00
(PID.TID 0000.0001) %MON exf_vwind_del2               =   2.0096703299304E-03
(PID.TID 0000.0001) %MON exf_wspeed_max               =   2.1449924965756E+01
(PID.TID 0000.0001) %MON exf_wspeed_min               =   8.9918092561948E-03
(PID.TID 0000.0001) %MON exf_wspeed_mean              =   9.8516364774551E+00
(PID.TID 0000.0001) %MON exf_wspeed_sd                =   4.2441433116349E+00
(PID.TID 0000.0001) %MON exf_wspeed_del2              =   3.3126737099665E-03
(PID.TID 0000.0001) %MON exf_atemp_max                =   2.9682174766329E+02
(PID.TID 0000.0001) %MON exf_atemp_min                =   2.6706081793608E+02
(PID.TID 0000.0001) %MON exf_atemp_mean               =   2.8900295055477E+02
(PID.TID 0000.0001) %MON exf_atemp_sd                 =   4.9403167207902E+00
(PID.TID 0000.0001) %MON exf_atemp_del2               =   5.0329036928646E-03
(PID.TID 0000.0001) %MON exf_aqh_max                  =   1.4798666839632E-02
(PID.TID 0000.0001) %MON exf_aqh_min                  =   1.3796167835137E-03
(PID.TID 0000.0001) %MON exf_aqh_mean                 =   8.6258855583293E-03
(PID.TID 0000.0001) %MON exf_aqh_sd                   =   2.9701937495751E-03
(PID.TID 0000.0001) %MON exf_aqh_del2                 =   2.7751803966302E-06
(PID.TID 0000.0001) %MON exf_lwflux_max               =   1.7630335581811E+02
(PID.TID 0000.0001) %MON exf_lwflux_min               =  -4.5442104014363E+00
(PID.TID 0000.0001) %MON exf_lwflux_mean              =   5.9679513649587E+01
(PID.TID 0000.0001) %MON exf_lwflux_sd                =   2.8214043998260E+01
(PID.TID 0000.0001) %MON exf_lwflux_del2              =   2.0055401751404E-02
(PID.TID 0000.0001) %MON exf_evap_max                 =   3.9759487143091E-07
(PID.TID 0000.0001) %MON exf_evap_min                 =  -7.1805536589883E-08
(PID.TID 0000.0001) %MON exf_evap_mean                =   6.3786351522876E-08
(PID.TID 0000.0001) %MON exf_evap_sd                  =   5.5892492307191E-08
(PID.TID 0000.0001) %MON exf_evap_del2                =   2.5828387713924E-11
(PID.TID 0000.0001) %MON exf_precip_max               =   3.2401410596792E-06
(PID.TID 0000.0001) %MON exf_precip_min               =   0.0000000000000E+00
(PID.TID 0000.0001) %MON exf_precip_mean              =   7.3049300654245E-08
(PID.TID 0000.0001) %MON exf_precip_sd                =   1.7051854374438E-07
(PID.TID 0000.0001) %MON exf_precip_del2              =   5.8369823842746E-11
(PID.TID 0000.0001) %MON exf_swflux_max               =   0.0000000000000E+00
(PID.TID 0000.0001) %MON exf_swflux_min               =  -3.9484344678752E+02
(PID.TID 0000.0001) %MON exf_swflux_mean              =  -5.4246312205177E+01
(PID.TID 0000.0001) %MON exf_swflux_sd                =   7.5852954757341E+01
(PID.TID 0000.0001) %MON exf_swflux_del2              =   2.8119076175616E-02
(PID.TID 0000.0001) %MON exf_swdown_max               =   4.3263326253147E+02
(PID.TID 0000.0001) %MON exf_swdown_min               =   0.0000000000000E+00
(PID.TID 0000.0001) %MON exf_swdown_mean              =   5.9730320984254E+01
(PID.TID 0000.0001) %MON exf_swdown_sd                =   8.3393035220856E+01
(PID.TID 0000.0001) %MON exf_swdown_del2              =   3.0939613982777E-02
(PID.TID 0000.0001) %MON exf_lwdown_max               =   4.1332532513774E+02
(PID.TID 0000.0001) %MON exf_lwdown_min               =   1.8640697979570E+02
(PID.TID 0000.0001) %MON exf_lwdown_mean              =   3.4460847152268E+02
(PID.TID 0000.0001) %MON exf_lwdown_sd                =   3.2956432894571E+01
(PID.TID 0000.0001) %MON exf_lwdown_del2              =   1.0571909547472E-01
(PID.TID 0000.0001) %MON exf_apressure_max            =   1.0270953961057E+05
(PID.TID 0000.0001) %MON exf_apressure_min            =   9.8562547715410E+04
(PID.TID 0000.0001) %MON exf_apressure_mean           =   1.0147591801027E+05
(PID.TID 0000.0001) %MON exf_apressure_sd             =   8.5129907388429E+02
(PID.TID 0000.0001) %MON exf_apressure_del2           =   3.1006805482882E+01
(PID.TID 0000.0001) %MON exf_runoff_max               =   4.6633690723924E-08
(PID.TID 0000.0001) %MON exf_runoff_min               =   0.0000000000000E+00
(PID.TID 0000.0001) %MON exf_runoff_mean              =   1.6070446344693E-09
(PID.TID 0000.0001) %MON exf_runoff_sd                =   5.4409705936606E-09
(PID.TID 0000.0001) %MON exf_runoff_del2              =   1.7602788524736E-12
(PID.TID 0000.0001) // =======================================================
(PID.TID 0000.0001) // End MONITOR EXF statistics
(PID.TID 0000.0001) // =======================================================
 cg2d: Sum(rhs),rhsMax =   2.73790149376767E+03  3.37891955970712E-03
 cg2d: Sum(rhs),rhsMax =   1.52554324851695E+03  4.11144381444555E-03
 cg2d: Sum(rhs),rhsMax =   3.09223680193597E+02  4.83987032776125E-03
 cg2d: Sum(rhs),rhsMax =  -9.10900729842994E+02  5.56393823455340E-03
 cg2d: Sum(rhs),rhsMax =  -2.13467300007388E+03  6.28339237697852E-03
 cg2d: Sum(rhs),rhsMax =  -3.36193566890075E+03  6.99797867466348E-03
 cg2d: Sum(rhs),rhsMax =  -4.59253081481883E+03  7.70742888640303E-03
 cg2d: Sum(rhs),rhsMax =  -5.82630007660117E+03  8.41145767318084E-03
 cg2d: Sum(rhs),rhsMax =  -7.06308467356884E+03  9.10975200944936E-03
 cg2d: Sum(rhs),rhsMax =  -8.30272542584758E+03  9.80197816117104E-03
 cg2d: Sum(rhs),rhsMax =  -9.54506277472968E+03  1.04877783186929E-02
 cg2d: Sum(rhs),rhsMax =  -1.07899368030104E+04  1.11667821445569E-02
 cg2d: Sum(rhs),rhsMax =  -1.20371872554086E+04  1.18386054107343E-02
 cg2d: Sum(rhs),rhsMax =  -1.32866535589799E+04  1.25028615397233E-02
 cg2d: Sum(rhs),rhsMax =  -1.45381748436015E+04  1.31591588792544E-02
 cg2d: Sum(rhs),rhsMax =  -1.57915899624295E+04  1.38071102819298E-02
 cg2d: Sum(rhs),rhsMax =  -1.70467375124437E+04  1.44463289400874E-02
 cg2d: Sum(rhs),rhsMax =  -1.83034558549564E+04  1.50764334354197E-02
 cg2d: Sum(rhs),rhsMax =  -1.95615831361829E+04  1.56970438069653E-02
 cg2d: Sum(rhs),rhsMax =  -2.08209573078010E+04  1.63077883191411E-02
 cg2d: Sum(rhs),rhsMax =  -2.20814161475513E+04  1.69082974149162E-02
 cg2d: Sum(rhs),rhsMax =  -2.33427972798139E+04  1.74982035904655E-02
 cg2d: Sum(rhs),rhsMax =  -2.46049381962388E+04  1.80771446861081E-02
 cg2d: Sum(rhs),rhsMax =  -2.58676762763394E+04  1.86447599724584E-02
 cg2d: Sum(rhs),rhsMax =  -2.71308488081268E+04  1.92006956169169E-02
 cg2d: Sum(rhs),rhsMax =  -2.83942930087193E+04  1.97446030699515E-02
 cg2d: Sum(rhs),rhsMax =  -2.96578460449765E+04  2.02761440523365E-02
 cg2d: Sum(rhs),rhsMax =  -3.09213450540966E+04  2.07949943565697E-02
 cg2d: Sum(rhs),rhsMax =  -3.21846271642533E+04  2.13008520635620E-02
 cg2d: Sum(rhs),rhsMax =  -3.34475295151811E+04  2.17934415742422E-02
 cg2d: Sum(rhs),rhsMax =  -3.47098892787814E+04  2.22725230051892E-02
 cg2d: Sum(rhs),rhsMax =  -3.59715436796977E+04  2.27378978399960E-02
 cg2d: Sum(rhs),rhsMax =  -3.72323300158957E+04  2.31894185557451E-02
 cg2d: Sum(rhs),rhsMax =  -3.84920856791922E+04  2.36269932711788E-02
 cg2d: Sum(rhs),rhsMax =  -3.97506481758093E+04  2.40505902673683E-02
 cg2d: Sum(rhs),rhsMax =  -4.10078551468644E+04  2.44602435861529E-02
 cg2d: Sum(rhs),rhsMax =  -4.22635443888664E+04  2.48560528812489E-02
 cg2d: Sum(rhs),rhsMax =  -4.35175538741631E+04  2.52381826673531E-02
 cg2d: Sum(rhs),rhsMax =  -4.47697217713811E+04  2.56068598753969E-02
 cg2d: Sum(rhs),rhsMax =  -4.60198864658047E+04  2.59623696832191E-02
 cg2d: Sum(rhs),rhsMax =  -4.72678865797588E+04  2.63050499200503E-02
 cg2d: Sum(rhs),rhsMax =  -4.85135609929167E+04  2.66352844515275E-02
 cg2d: Sum(rhs),rhsMax =  -4.97567488626022E+04  2.69534960043081E-02
 cg2d: Sum(rhs),rhsMax =  -5.09972896440236E+04  2.72601388843448E-02
 cg2d: Sum(rhs),rhsMax =  -5.22350231104912E+04  2.75556919520669E-02
(PID.TID 0000.0001)      cg2d_init_res =   1.03030691604447E+00
(PID.TID 0000.0001)      cg2d_iters(min,last) =      -1     153
(PID.TID 0000.0001)      cg2d_last_res =   2.06788554403584E-11
(PID.TID 0000.0001) // =======================================================
(PID.TID 0000.0001) // Begin MONITOR dynamic field statistics
(PID.TID 0000.0001) // =======================================================
(PID.TID 0000.0001) %MON time_tsnumber                =              15811695
(PID.TID 0000.0001) %MON time_secondsf                =   1.2649356000000E+09
(PID.TID 0000.0001) %MON dynstat_eta_max              =   1.6386558205185E+00
(PID.TID 0000.0001) %MON dynstat_eta_min              =  -2.0607661966976E+00
(PID.TID 0000.0001) %MON dynstat_eta_mean             =   1.9740750550848E-01
(PID.TID 0000.0001) %MON dynstat_eta_sd               =   4.3318817953181E-01
(PID.TID 0000.0001) %MON dynstat_eta_del2             =   1.0945465801035E-06
(PID.TID 0000.0001) %MON dynstat_uvel_max             =   2.7461448783849E+00
(PID.TID 0000.0001) %MON dynstat_uvel_min             =  -2.7615379211567E+00
(PID.TID 0000.0001) %MON dynstat_uvel_mean            =   4.5799358694265E-03
(PID.TID 0000.0001) %MON dynstat_uvel_sd              =   9.3642919752796E-02
(PID.TID 0000.0001) %MON dynstat_uvel_del2            =   1.8923148099625E-06
(PID.TID 0000.0001) %MON dynstat_vvel_max             =   2.9023049117511E+00
(PID.TID 0000.0001) %MON dynstat_vvel_min             =  -2.9865646342995E+00
(PID.TID 0000.0001) %MON dynstat_vvel_mean            =   1.0232446225915E-02
(PID.TID 0000.0001) %MON dynstat_vvel_sd              =   8.6055958995635E-02
(PID.TID 0000.0001) %MON dynstat_vvel_del2            =   1.7737829659835E-06
(PID.TID 0000.0001) %MON dynstat_wvel_max             =   3.9786151292323E-02
(PID.TID 0000.0001) %MON dynstat_wvel_min             =  -3.0116716140701E-02
(PID.TID 0000.0001) %MON dynstat_wvel_mean            =   3.4445971073502E-05
(PID.TID 0000.0001) %MON dynstat_wvel_sd              =   1.6469101083236E-03
(PID.TID 0000.0001) %MON dynstat_wvel_del2            =   9.8560897795085E-08
(PID.TID 0000.0001) %MON dynstat_theta_max            =   2.4965563066691E+01
(PID.TID 0000.0001) %MON dynstat_theta_min            =  -2.7498066405913E+00
(PID.TID 0000.0001) %MON dynstat_theta_mean           =   5.5822276350933E+00
(PID.TID 0000.0001) %MON dynstat_theta_sd             =   4.6754584689359E+00
(PID.TID 0000.0001) %MON dynstat_theta_del2           =   7.4729391407255E-06
(PID.TID 0000.0001) %MON dynstat_salt_max             =   8.9661920767532E+01
(PID.TID 0000.0001) %MON dynstat_salt_min             =   2.0153134978617E+00
(PID.TID 0000.0001) %MON dynstat_salt_mean            =   3.5191325362965E+01
(PID.TID 0000.0001) %MON dynstat_salt_sd              =   4.5273144291747E-01
(PID.TID 0000.0001) %MON dynstat_salt_del2            =   1.4941442354040E-06
(PID.TID 0000.0001) %MON dynstat_sst_max              =   2.4942626358954E+01
(PID.TID 0000.0001) %MON dynstat_sst_min              =  -2.7498066405913E+00
(PID.TID 0000.0001) %MON dynstat_sst_mean             =   1.7708999573243E+01
(PID.TID 0000.0001) %MON dynstat_sst_sd               =   3.3986588224743E+00
(PID.TID 0000.0001) %MON dynstat_sst_del2             =   9.7762324560361E-05
(PID.TID 0000.0001) %MON dynstat_sss_max              =   8.9645852246785E+01
(PID.TID 0000.0001) %MON dynstat_sss_min              =   2.0153134978617E+00
(PID.TID 0000.0001) %MON dynstat_sss_mean             =   3.6425491064630E+01
(PID.TID 0000.0001) %MON dynstat_sss_sd               =   4.5292195988287E-01
(PID.TID 0000.0001) %MON dynstat_sss_del2             =   1.9135612496491E-05
(PID.TID 0000.0001) %MON forcing_qnet_max             =   1.5046400994631E+03
(PID.TID 0000.0001) %MON forcing_qnet_min             =  -3.8853508631520E+02
(PID.TID 0000.0001) %MON forcing_qnet_mean            =   1.4368313869423E+02
(PID.TID 0000.0001) %MON forcing_qnet_sd              =   2.7127567142495E+02
(PID.TID 0000.0001) %MON forcing_qnet_del2            =   5.6408180978875E-03
(PID.TID 0000.0001) %MON forcing_qsw_max              =   0.0000000000000E+00
(PID.TID 0000.0001) %MON forcing_qsw_min              =  -5.2850368577530E+02
(PID.TID 0000.0001) %MON forcing_qsw_mean             =  -1.1238969075325E+02
(PID.TID 0000.0001) %MON forcing_qsw_sd               =   1.1263486048336E+02
(PID.TID 0000.0001) %MON forcing_qsw_del2             =   1.1169007589062E-04
(PID.TID 0000.0001) %MON forcing_empmr_max            =   3.6437377471002E-04
(PID.TID 0000.0001) %MON forcing_empmr_min            =  -3.0801333028095E-03
(PID.TID 0000.0001) %MON forcing_empmr_mean           =  -1.0904173314612E-05
(PID.TID 0000.0001) %MON forcing_empmr_sd             =   1.7839068995677E-04
(PID.TID 0000.0001) %MON forcing_empmr_del2           =   1.7643632219944E-09
(PID.TID 0000.0001) %MON forcing_fu_max               =   1.0384121016155E+00
(PID.TID 0000.0001) %MON forcing_fu_min               =  -4.9662564380927E-01
(PID.TID 0000.0001) %MON forcing_fu_mean              =   1.3285577367845E-01
(PID.TID 0000.0001) %MON forcing_fu_sd                =   1.7321484157082E-01
(PID.TID 0000.0001) %MON forcing_fu_del2              =   9.6090307330216E-07
(PID.TID 0000.0001) %MON forcing_fv_max               =   9.4090935591766E-01
(PID.TID 0000.0001) %MON forcing_fv_min               =  -5.8385214436904E-01
(PID.TID 0000.0001) %MON forcing_fv_mean              =   1.7089962431854E-02
(PID.TID 0000.0001) %MON forcing_fv_sd                =   1.5294117036841E-01
(PID.TID 0000.0001) %MON forcing_fv_del2              =   8.4337005237772E-07
(PID.TID 0000.0001) %MON trAdv_CFL_u_max              =   1.0243872209349E-01
(PID.TID 0000.0001) %MON trAdv_CFL_v_max              =   1.0316636383499E-01
(PID.TID 0000.0001) %MON trAdv_CFL_w_max              =   2.9620240039797E-01
(PID.TID 0000.0001) %MON advcfl_uvel_max              =   1.0243872152919E-01
(PID.TID 0000.0001) %MON advcfl_vvel_max              =   1.0315406394779E-01
(PID.TID 0000.0001) %MON advcfl_wvel_max              =   2.9797834507829E-01
(PID.TID 0000.0001) %MON advcfl_W_hf_max              =   3.0030630089922E-01
(PID.TID 0000.0001) %MON pe_b_mean                    =   5.0865816532274E-03
(PID.TID 0000.0001) %MON ke_max                       =   4.5632936018086E+00
(PID.TID 0000.0001) %MON ke_mean                      =   8.1061779113777E-03
(PID.TID 0000.0001) %MON ke_vol                       =   4.6123795034297E+16
(PID.TID 0000.0001) %MON vort_r_min                   =  -2.0980122042433E-03
(PID.TID 0000.0001) %MON vort_r_max                   =   1.4369412491313E-03
(PID.TID 0000.0001) %MON vort_a_mean                  =   8.2145904797881E-05
(PID.TID 0000.0001) %MON vort_a_sd                    =   1.4009751537676E-05
(PID.TID 0000.0001) %MON vort_p_mean                  =   8.4437935606483E-05
(PID.TID 0000.0001) %MON vort_p_sd                    =   3.3995055101374E-05
(PID.TID 0000.0001) %MON surfExpan_theta_mean         =   9.9016925899903E-04
(PID.TID 0000.0001) %MON surfExpan_salt_mean          =   2.1284829668743E-03
(PID.TID 0000.0001) // =======================================================
(PID.TID 0000.0001) // End MONITOR dynamic field statistics
(PID.TID 0000.0001) // =======================================================
(PID.TID 0000.0001) // =======================================================
(PID.TID 0000.0001) // Begin OBCS MONITOR field statistics
(PID.TID 0000.0001) // =======================================================
(PID.TID 0000.0001) %MON obc_E_uVel_max               =  -4.1439284959563E-01
(PID.TID 0000.0001) %MON obc_E_uVel_min               =  -8.0237567148054E-01
(PID.TID 0000.0001) %MON obc_E_uVel_mean              =  -5.6688390962584E-01
(PID.TID 0000.0001) %MON obc_E_uVel_sd                =   7.1967085958744E-02
(PID.TID 0000.0001) %MON obc_E_uVel_Int               =  -3.8686714221697E+06
(PID.TID 0000.0001) %MON obc_N_vVel_max               =   6.7572250811204E-01
(PID.TID 0000.0001) %MON obc_N_vVel_min               =  -2.4611386704396E-01
(PID.TID 0000.0001) %MON obc_N_vVel_mean              =  -4.9712377943391E-03
(PID.TID 0000.0001) %MON obc_N_vVel_sd                =   3.7779678062659E-02
(PID.TID 0000.0001) %MON obc_N_vVel_Int               =  -7.0937797065126E+07
(PID.TID 0000.0001) %MON obc_S_vVel_max               =   1.2850444006426E+00
(PID.TID 0000.0001) %MON obc_S_vVel_min               =  -1.5321643407972E-01
(PID.TID 0000.0001) %MON obc_S_vVel_mean              =   1.9404267896228E-02
(PID.TID 0000.0001) %MON obc_S_vVel_sd                =   2.8928164665369E-02
(PID.TID 0000.0001) %MON obc_S_vVel_Int               =   5.9004185466376E+08
(PID.TID 0000.0001) %MON obc_E_theta_max              =   1.5981519699097E+01
(PID.TID 0000.0001) %MON obc_E_theta_min              =   1.3104037284851E+01
(PID.TID 0000.0001) %MON obc_E_theta_mean             =   1.4974089986960E+01
(PID.TID 0000.0001) %MON obc_E_theta_sd               =   6.0075505804650E-01
(PID.TID 0000.0001) %MON obc_N_theta_max              =   1.5721092224121E+01
(PID.TID 0000.0001) %MON obc_N_theta_min              =   9.7373789548874E-01
(PID.TID 0000.0001) %MON obc_N_theta_mean             =   5.3443110148828E+00
(PID.TID 0000.0001) %MON obc_N_theta_sd               =   3.5834807335781E+00
(PID.TID 0000.0001) %MON obc_S_theta_max              =   2.4979528427124E+01
(PID.TID 0000.0001) %MON obc_S_theta_min              =   1.5124862194061E+00
(PID.TID 0000.0001) %MON obc_S_theta_mean             =   5.4273114502690E+00
(PID.TID 0000.0001) %MON obc_S_theta_sd               =   5.1694562801555E+00
(PID.TID 0000.0001) %MON obc_E_salt_max               =   3.8703720092773E+01
(PID.TID 0000.0001) %MON obc_E_salt_min               =   3.6289142608643E+01
(PID.TID 0000.0001) %MON obc_E_salt_mean              =   3.6643778075730E+01
(PID.TID 0000.0001) %MON obc_E_salt_sd                =   5.5037722650442E-01
(PID.TID 0000.0001) %MON obc_N_salt_max               =   3.6066974639893E+01
(PID.TID 0000.0001) %MON obc_N_salt_min               =   3.2878395080566E+01
(PID.TID 0000.0001) %MON obc_N_salt_mean              =   3.5117165924185E+01
(PID.TID 0000.0001) %MON obc_N_salt_sd                =   3.1541903364831E-01
(PID.TID 0000.0001) %MON obc_S_salt_max               =   3.7600940704346E+01
(PID.TID 0000.0001) %MON obc_S_salt_min               =   3.4853485107422E+01
(PID.TID 0000.0001) %MON obc_S_salt_mean              =   3.5185630803177E+01
(PID.TID 0000.0001) %MON obc_S_salt_sd                =   4.9502018312198E-01
(PID.TID 0000.0001) // =======================================================
(PID.TID 0000.0001) // End OBCS MONITOR field statistics
(PID.TID 0000.0001) // =======================================================
(PID.TID 0000.0001) // =======================================================
(PID.TID 0000.0001) // Begin MONITOR ptracer field statistics
(PID.TID 0000.0001) // =======================================================
(PID.TID 0000.0001) %MON trcstat_ptracer01_max        =   0.0000000000000E+00
(PID.TID 0000.0001) %MON trcstat_ptracer01_min        =   0.0000000000000E+00
(PID.TID 0000.0001) %MON trcstat_ptracer01_mean       =   0.0000000000000E+00
(PID.TID 0000.0001) %MON trcstat_ptracer01_sd         =   0.0000000000000E+00
(PID.TID 0000.0001) %MON trcstat_ptracer01_del2       =   0.0000000000000E+00
(PID.TID 0000.0001) %MON trcstat_ptracer02_max        =   0.0000000000000E+00
(PID.TID 0000.0001) %MON trcstat_ptracer02_min        =   0.0000000000000E+00
(PID.TID 0000.0001) %MON trcstat_ptracer02_mean       =   0.0000000000000E+00
(PID.TID 0000.0001) %MON trcstat_ptracer02_sd         =   0.0000000000000E+00
(PID.TID 0000.0001) %MON trcstat_ptracer02_del2       =   0.0000000000000E+00
(PID.TID 0000.0001) // =======================================================
(PID.TID 0000.0001) // End MONITOR ptracer field statistics
(PID.TID 0000.0001) // =======================================================
(PID.TID 0000.0001) // =======================================================
(PID.TID 0000.0001) // Begin MONITOR EXF statistics
(PID.TID 0000.0001) // =======================================================
(PID.TID 0000.0001) %MON exf_tsnumber                 =              15811695
(PID.TID 0000.0001) %MON exf_time_sec                 =   1.2649356000000E+09
(PID.TID 0000.0001) %MON exf_ustress_max              =   1.0410854135345E+00
(PID.TID 0000.0001) %MON exf_ustress_min              =  -4.9996679677244E-01
(PID.TID 0000.0001) %MON exf_ustress_mean             =   1.3291399352254E-01
(PID.TID 0000.0001) %MON exf_ustress_sd               =   1.7341991044626E-01
(PID.TID 0000.0001) %MON exf_ustress_del2             =   1.0494720881753E-06
(PID.TID 0000.0001) %MON exf_vstress_max              =   9.5242890375973E-01
(PID.TID 0000.0001) %MON exf_vstress_min              =  -5.7463165310703E-01
(PID.TID 0000.0001) %MON exf_vstress_mean             =   1.7079176445609E-02
(PID.TID 0000.0001) %MON exf_vstress_sd               =   1.5321017985655E-01
(PID.TID 0000.0001) %MON exf_vstress_del2             =   9.3448635930338E-07
(PID.TID 0000.0001) %MON exf_hflux_max                =   1.4689011232780E+03
(PID.TID 0000.0001) %MON exf_hflux_min                =  -3.6180453792413E+02
(PID.TID 0000.0001) %MON exf_hflux_mean               =   1.4166720078862E+02
(PID.TID 0000.0001) %MON exf_hflux_sd                 =   2.6866493774834E+02
(PID.TID 0000.0001) %MON exf_hflux_del2               =   9.2512198819146E-02
(PID.TID 0000.0001) %MON exf_sflux_max                =   3.6436214337630E-07
(PID.TID 0000.0001) %MON exf_sflux_min                =  -3.0509364732925E-06
(PID.TID 0000.0001) %MON exf_sflux_mean               =  -1.0890577442005E-08
(PID.TID 0000.0001) %MON exf_sflux_sd                 =   1.7834819348873E-07
(PID.TID 0000.0001) %MON exf_sflux_del2               =   5.6315174051392E-11
(PID.TID 0000.0001) %MON exf_uwind_max                =   2.0615220837789E+01
(PID.TID 0000.0001) %MON exf_uwind_min                =  -1.3563343718597E+01
(PID.TID 0000.0001) %MON exf_uwind_mean               =   5.9057013742080E+00
(PID.TID 0000.0001) %MON exf_uwind_sd                 =   6.2002583344937E+00
(PID.TID 0000.0001) %MON exf_uwind_del2               =   2.6559504059137E-03
(PID.TID 0000.0001) %MON exf_vwind_max                =   1.9477045251326E+01
(PID.TID 0000.0001) %MON exf_vwind_min                =  -1.4393015554356E+01
(PID.TID 0000.0001) %MON exf_vwind_mean               =   9.6080876984110E-01
(PID.TID 0000.0001) %MON exf_vwind_sd                 =   6.6415428320813E+00
(PID.TID 0000.0001) %MON exf_vwind_del2               =   2.0579204249730E-03
(PID.TID 0000.0001) %MON exf_wspeed_max               =   2.2133795696130E+01
(PID.TID 0000.0001) %MON exf_wspeed_min               =   1.7415051959512E-03
(PID.TID 0000.0001) %MON exf_wspeed_mean              =   9.9989911266375E+00
(PID.TID 0000.0001) %MON exf_wspeed_sd                =   4.2864826218919E+00
(PID.TID 0000.0001) %MON exf_wspeed_del2              =   3.3596932826032E-03
(PID.TID 0000.0001) %MON exf_atemp_max                =   2.9672597918671E+02
(PID.TID 0000.0001) %MON exf_atemp_min                =   2.6677488401410E+02
(PID.TID 0000.0001) %MON exf_atemp_mean               =   2.8900043248053E+02
(PID.TID 0000.0001) %MON exf_atemp_sd                 =   4.9773016418830E+00
(PID.TID 0000.0001) %MON exf_atemp_del2               =   5.0357492239021E-03
(PID.TID 0000.0001) %MON exf_aqh_max                  =   1.4908423174136E-02
(PID.TID 0000.0001) %MON exf_aqh_min                  =   1.3523992088440E-03
(PID.TID 0000.0001) %MON exf_aqh_mean                 =   8.6298288140806E-03
(PID.TID 0000.0001) %MON exf_aqh_sd                   =   2.9546319496115E-03
(PID.TID 0000.0001) %MON exf_aqh_del2                 =   2.7752755973681E-06
(PID.TID 0000.0001) %MON exf_lwflux_max               =   1.7526990678173E+02
(PID.TID 0000.0001) %MON exf_lwflux_min               =  -6.7565199380464E+00
(PID.TID 0000.0001) %MON exf_lwflux_mean              =   5.9934519532461E+01
(PID.TID 0000.0001) %MON exf_lwflux_sd                =   2.7821452535347E+01
(PID.TID 0000.0001) %MON exf_lwflux_del2              =   2.0078085886458E-02
(PID.TID 0000.0001) %MON exf_evap_max                 =   3.8509698955171E-07
(PID.TID 0000.0001) %MON exf_evap_min                 =  -9.1438854879025E-08
(PID.TID 0000.0001) %MON exf_evap_mean                =   6.5135893680016E-08
(PID.TID 0000.0001) %MON exf_evap_sd                  =   5.7794523063520E-08
(PID.TID 0000.0001) %MON exf_evap_del2                =   2.6522718724628E-11
(PID.TID 0000.0001) %MON exf_precip_max               =   3.1016164188681E-06
(PID.TID 0000.0001) %MON exf_precip_min               =   0.0000000000000E+00
(PID.TID 0000.0001) %MON exf_precip_mean              =   7.4419426487551E-08
(PID.TID 0000.0001) %MON exf_precip_sd                =   1.6925532868863E-07
(PID.TID 0000.0001) %MON exf_precip_del2              =   5.8461689036680E-11
(PID.TID 0000.0001) %MON exf_swflux_max               =   0.0000000000000E+00
(PID.TID 0000.0001) %MON exf_swflux_min               =  -5.3093205273551E+02
(PID.TID 0000.0001) %MON exf_swflux_mean              =  -1.1402848082386E+02
(PID.TID 0000.0001) %MON exf_swflux_sd                =   1.1349193975689E+02
(PID.TID 0000.0001) %MON exf_swflux_del2              =   4.8487882923838E-02
(PID.TID 0000.0001) %MON exf_swdown_max               =   5.8170263274136E+02
(PID.TID 0000.0001) %MON exf_swdown_min               =   0.0000000000000E+00
(PID.TID 0000.0001) %MON exf_swdown_mean              =   1.2555893913167E+02
(PID.TID 0000.0001) %MON exf_swdown_sd                =   1.2465967009417E+02
(PID.TID 0000.0001) %MON exf_swdown_del2              =   5.3342409079795E-02
(PID.TID 0000.0001) %MON exf_lwdown_max               =   4.0827078445243E+02
(PID.TID 0000.0001) %MON exf_lwdown_min               =   1.8461485992479E+02
(PID.TID 0000.0001) %MON exf_lwdown_mean              =   3.4434229113678E+02
(PID.TID 0000.0001) %MON exf_lwdown_sd                =   3.2318120842178E+01
(PID.TID 0000.0001) %MON exf_lwdown_del2              =   1.0561138209019E-01
(PID.TID 0000.0001) %MON exf_apressure_max            =   1.0280200535351E+05
(PID.TID 0000.0001) %MON exf_apressure_min            =   9.8513577500756E+04
(PID.TID 0000.0001) %MON exf_apressure_mean           =   1.0147316278077E+05
(PID.TID 0000.0001) %MON exf_apressure_sd             =   8.8237742725356E+02
(PID.TID 0000.0001) %MON exf_apressure_del2           =   3.1005552833997E+01
(PID.TID 0000.0001) %MON exf_runoff_max               =   4.6633690723924E-08
(PID.TID 0000.0001) %MON exf_runoff_min               =   0.0000000000000E+00
(PID.TID 0000.0001) %MON exf_runoff_mean              =   1.6070446344693E-09
(PID.TID 0000.0001) %MON exf_runoff_sd                =   5.4409705936606E-09
(PID.TID 0000.0001) %MON exf_runoff_del2              =   1.7602788524736E-12
(PID.TID 0000.0001) // =======================================================
(PID.TID 0000.0001) // End MONITOR EXF statistics
(PID.TID 0000.0001) // =======================================================
 cg2d: Sum(rhs),rhsMax =  -5.34697893735576E+04  2.78406521382462E-02
 cg2d: Sum(rhs),rhsMax =  -5.47014289031475E+04  2.81155842827912E-02
 cg2d: Sum(rhs),rhsMax =  -5.59297825475999E+04  2.83810424409040E-02
 cg2d: Sum(rhs),rhsMax =  -5.71546915536903E+04  2.86375647858280E-02
 cg2d: Sum(rhs),rhsMax =  -5.83759975865715E+04  2.88856736101142E-02
 cg2d: Sum(rhs),rhsMax =  -5.95935427496843E+04  2.91258777802255E-02
 cg2d: Sum(rhs),rhsMax =  -6.08071696045743E+04  2.93586759308456E-02
 cg2d: Sum(rhs),rhsMax =  -6.20167211906911E+04  2.95845591954274E-02
 cg2d: Sum(rhs),rhsMax =  -6.32220410450796E+04  2.98040127692604E-02
 cg2d: Sum(rhs),rhsMax =  -6.44229732220430E+04  3.00175160219791E-02
 cg2d: Sum(rhs),rhsMax =  -6.56193623127088E+04  3.02255407200985E-02
 cg2d: Sum(rhs),rhsMax =  -6.68110534645479E+04  3.04285488394263E-02
 cg2d: Sum(rhs),rhsMax =  -6.79978924007986E+04  3.06269899469477E-02
 cg2d: Sum(rhs),rhsMax =  -6.91797254398420E+04  3.08212983973379E-02
 cg2d: Sum(rhs),rhsMax =  -7.03563995144741E+04  3.10118906279587E-02
 cg2d: Sum(rhs),rhsMax =  -7.15277621911221E+04  3.11991628216291E-02
 cg2d: Sum(rhs),rhsMax =  -7.26936616889606E+04  3.13834892405823E-02
 cg2d: Sum(rhs),rhsMax =  -7.38539468989659E+04  3.15652215068993E-02
 cg2d: Sum(rhs),rhsMax =  -7.50084674028554E+04  3.17446889177745E-02
 cg2d: Sum(rhs),rhsMax =  -7.61570734919789E+04  3.19221998538626E-02
 cg2d: Sum(rhs),rhsMax =  -7.72996161860774E+04  3.20980439109077E-02
 cg2d: Sum(rhs),rhsMax =  -7.84359472519934E+04  3.22724942981646E-02
 cg2d: Sum(rhs),rhsMax =  -7.95659192222452E+04  3.24458099824490E-02
 cg2d: Sum(rhs),rhsMax =  -8.06893854135503E+04  3.26182370446938E-02
 cg2d: Sum(rhs),rhsMax =  -8.18061999452006E+04  3.27900088831239E-02
 cg2d: Sum(rhs),rhsMax =  -8.29162177573972E+04  3.29613449966325E-02
 cg2d: Sum(rhs),rhsMax =  -8.40192946294196E+04  3.31324483880992E-02
 cg2d: Sum(rhs),rhsMax =  -8.51152871977532E+04  3.33035018975589E-02
 cg2d: Sum(rhs),rhsMax =  -8.62040529740563E+04  3.34746639425038E-02
 cg2d: Sum(rhs),rhsMax =  -8.72854503630687E+04  3.36460642074058E-02
 cg2d: Sum(rhs),rhsMax =  -8.83593386803603E+04  3.38177998677953E-02
 cg2d: Sum(rhs),rhsMax =  -8.94255781700258E+04  3.39899328566994E-02
 cg2d: Sum(rhs),rhsMax =  -9.04840300222034E+04  3.41624883846706E-02
 cg2d: Sum(rhs),rhsMax =  -9.15345563905415E+04  3.43354548742075E-02
 cg2d: Sum(rhs),rhsMax =  -9.25770204094841E+04  3.45087857008529E-02
 cg2d: Sum(rhs),rhsMax =  -9.36112862115063E+04  3.46824024582298E-02
 cg2d: Sum(rhs),rhsMax =  -9.46372189441529E+04  3.48561993101152E-02
 cg2d: Sum(rhs),rhsMax =  -9.56546847870299E+04  3.50300479491244E-02
 cg2d: Sum(rhs),rhsMax =  -9.66635509686026E+04  3.52038027282841E-02
 cg2d: Sum(rhs),rhsMax =  -9.76636857829305E+04  3.53773055760299E-02
 cg2d: Sum(rhs),rhsMax =  -9.86549586062106E+04  3.55503904073693E-02
 cg2d: Sum(rhs),rhsMax =  -9.96372399132558E+04  3.57228870715442E-02
 cg2d: Sum(rhs),rhsMax =  -1.00610401293772E+05  3.58946236750774E-02
 cg2d: Sum(rhs),rhsMax =  -1.01574315468576E+05  3.60654282775003E-02
 cg2d: Sum(rhs),rhsMax =  -1.02528856305598E+05  3.62351299668199E-02
(PID.TID 0000.0001)      cg2d_init_res =   9.83131490262077E-01
(PID.TID 0000.0001)      cg2d_iters(min,last) =      -1     153
(PID.TID 0000.0001)      cg2d_last_res =   1.95126006483539E-11
(PID.TID 0000.0001) // =======================================================
(PID.TID 0000.0001) // Begin MONITOR dynamic field statistics
(PID.TID 0000.0001) // =======================================================
(PID.TID 0000.0001) %MON time_tsnumber                =              15811740
(PID.TID 0000.0001) %MON time_secondsf                =   1.2649392000000E+09
(PID.TID 0000.0001) %MON dynstat_eta_max              =   1.6890872647103E+00
(PID.TID 0000.0001) %MON dynstat_eta_min              =  -1.2315857697732E+00
(PID.TID 0000.0001) %MON dynstat_eta_mean             =   3.8747883241312E-01
(PID.TID 0000.0001) %MON dynstat_eta_sd               =   3.2301616154123E-01
(PID.TID 0000.0001) %MON dynstat_eta_del2             =   1.1094544004923E-06
(PID.TID 0000.0001) %MON dynstat_uvel_max             =   2.7458826882136E+00
(PID.TID 0000.0001) %MON dynstat_uvel_min             =  -2.7706643549879E+00
(PID.TID 0000.0001) %MON dynstat_uvel_mean            =   1.1922256805463E-02
(PID.TID 0000.0001) %MON dynstat_uvel_sd              =   9.3760605928943E-02
(PID.TID 0000.0001) %MON dynstat_uvel_del2            =   1.9115289384370E-06
(PID.TID 0000.0001) %MON dynstat_vvel_max             =   3.0149379851304E+00
(PID.TID 0000.0001) %MON dynstat_vvel_min             =  -3.0035783293272E+00
(PID.TID 0000.0001) %MON dynstat_vvel_mean            =   1.1421730903170E-02
(PID.TID 0000.0001) %MON dynstat_vvel_sd              =   8.5910459559461E-02
(PID.TID 0000.0001) %MON dynstat_vvel_del2            =   1.7910926798396E-06
(PID.TID 0000.0001) %MON dynstat_wvel_max             =   4.0236514064587E-02
(PID.TID 0000.0001) %MON dynstat_wvel_min             =  -2.9467653457910E-02
(PID.TID 0000.0001) %MON dynstat_wvel_mean            =   2.6735241092215E-05
(PID.TID 0000.0001) %MON dynstat_wvel_sd              =   1.6460042734554E-03
(PID.TID 0000.0001) %MON dynstat_wvel_del2            =   9.9300989344783E-08
(PID.TID 0000.0001) %MON dynstat_theta_max            =   2.4964989300710E+01
(PID.TID 0000.0001) %MON dynstat_theta_min            =  -2.7801009291100E+00
(PID.TID 0000.0001) %MON dynstat_theta_mean           =   5.5816975540675E+00
(PID.TID 0000.0001) %MON dynstat_theta_sd             =   4.6748894901576E+00
(PID.TID 0000.0001) %MON dynstat_theta_del2           =   7.4647634175318E-06
(PID.TID 0000.0001) %MON dynstat_salt_max             =   8.9655105814347E+01
(PID.TID 0000.0001) %MON dynstat_salt_min             =   2.0153358481760E+00
(PID.TID 0000.0001) %MON dynstat_salt_mean            =   3.5191270873543E+01
(PID.TID 0000.0001) %MON dynstat_salt_sd              =   4.5266160106479E-01
(PID.TID 0000.0001) %MON dynstat_salt_del2            =   1.4914160189315E-06
(PID.TID 0000.0001) %MON dynstat_sst_max              =   2.4941865334010E+01
(PID.TID 0000.0001) %MON dynstat_sst_min              =  -2.7801009291100E+00
(PID.TID 0000.0001) %MON dynstat_sst_mean             =   1.7711014928933E+01
(PID.TID 0000.0001) %MON dynstat_sst_sd               =   3.3978205657093E+00
(PID.TID 0000.0001) %MON dynstat_sst_del2             =   9.7594391592495E-05
(PID.TID 0000.0001) %MON dynstat_sss_max              =   8.9634578443777E+01
(PID.TID 0000.0001) %MON dynstat_sss_min              =   2.0153358481760E+00
(PID.TID 0000.0001) %MON dynstat_sss_mean             =   3.6425642560849E+01
(PID.TID 0000.0001) %MON dynstat_sss_sd               =   4.5334799800042E-01
(PID.TID 0000.0001) %MON dynstat_sss_del2             =   1.9174293198135E-05
(PID.TID 0000.0001) %MON forcing_qnet_max             =   1.4290110375669E+03
(PID.TID 0000.0001) %MON forcing_qnet_min             =  -4.3740277209478E+02
(PID.TID 0000.0001) %MON forcing_qnet_mean            =   7.2647097372259E+01
(PID.TID 0000.0001) %MON forcing_qnet_sd              =   3.0638270586045E+02
(PID.TID 0000.0001) %MON forcing_qnet_del2            =   5.7642701076402E-03
(PID.TID 0000.0001) %MON forcing_qsw_max              =  -4.0608049803205E+00
(PID.TID 0000.0001) %MON forcing_qsw_min              =  -6.1138450152036E+02
(PID.TID 0000.0001) %MON forcing_qsw_mean             =  -1.8862848692185E+02
(PID.TID 0000.0001) %MON forcing_qsw_sd               =   1.4151834537683E+02
(PID.TID 0000.0001) %MON forcing_qsw_del2             =   1.5925486023558E-04
(PID.TID 0000.0001) %MON forcing_empmr_max            =   3.4099565696972E-04
(PID.TID 0000.0001) %MON forcing_empmr_min            =  -2.6276553960935E-03
(PID.TID 0000.0001) %MON forcing_empmr_mean           =  -9.6474936191643E-06
(PID.TID 0000.0001) %MON forcing_empmr_sd             =   1.7600557828305E-04
(PID.TID 0000.0001) %MON forcing_empmr_del2           =   1.7558181048919E-09
(PID.TID 0000.0001) %MON forcing_fu_max               =   1.0782362852992E+00
(PID.TID 0000.0001) %MON forcing_fu_min               =  -4.4493650128219E-01
(PID.TID 0000.0001) %MON forcing_fu_mean              =   1.3660301271430E-01
(PID.TID 0000.0001) %MON forcing_fu_sd                =   1.7948949754874E-01
(PID.TID 0000.0001) %MON forcing_fu_del2              =   9.8784103189944E-07
(PID.TID 0000.0001) %MON forcing_fv_max               =   8.3369441843988E-01
(PID.TID 0000.0001) %MON forcing_fv_min               =  -6.3426955080196E-01
(PID.TID 0000.0001) %MON forcing_fv_mean              =   1.7255993992335E-02
(PID.TID 0000.0001) %MON forcing_fv_sd                =   1.5993339040600E-01
(PID.TID 0000.0001) %MON forcing_fv_del2              =   8.7084547308673E-07
(PID.TID 0000.0001) %MON trAdv_CFL_u_max              =   9.3111030159048E-02
(PID.TID 0000.0001) %MON trAdv_CFL_v_max              =   1.0412168194878E-01
(PID.TID 0000.0001) %MON trAdv_CFL_w_max              =   2.8557403728500E-01
(PID.TID 0000.0001) %MON advcfl_uvel_max              =   9.3111029646121E-02
(PID.TID 0000.0001) %MON advcfl_vvel_max              =   1.0413406163892E-01
(PID.TID 0000.0001) %MON advcfl_wvel_max              =   2.8856291874089E-01
(PID.TID 0000.0001) %MON advcfl_W_hf_max              =   2.9161502653526E-01
(PID.TID 0000.0001) %MON pe_b_mean                    =   9.7392238050176E-03
(PID.TID 0000.0001) %MON ke_max                       =   4.6158390771744E+00
(PID.TID 0000.0001) %MON ke_mean                      =   8.1777900776873E-03
(PID.TID 0000.0001) %MON ke_vol                       =   4.6123795034297E+16
(PID.TID 0000.0001) %MON vort_r_min                   =  -2.0369683729097E-03
(PID.TID 0000.0001) %MON vort_r_max                   =   1.6702938448360E-03
(PID.TID 0000.0001) %MON vort_a_mean                  =   8.2145905326446E-05
(PID.TID 0000.0001) %MON vort_a_sd                    =   1.4050415391333E-05
(PID.TID 0000.0001) %MON vort_p_mean                  =   8.4437936149796E-05
(PID.TID 0000.0001) %MON vort_p_sd                    =   3.4048265659467E-05
(PID.TID 0000.0001) %MON surfExpan_theta_mean         =   7.3247752368858E-04
(PID.TID 0000.0001) %MON surfExpan_salt_mean          =   1.6395175461454E-03
(PID.TID 0000.0001) // =======================================================
(PID.TID 0000.0001) // End MONITOR dynamic field statistics
(PID.TID 0000.0001) // =======================================================
(PID.TID 0000.0001) // =======================================================
(PID.TID 0000.0001) // Begin OBCS MONITOR field statistics
(PID.TID 0000.0001) // =======================================================
(PID.TID 0000.0001) %MON obc_E_uVel_max               =  -3.5114110500854E-01
(PID.TID 0000.0001) %MON obc_E_uVel_min               =  -7.3616665230162E-01
(PID.TID 0000.0001) %MON obc_E_uVel_mean              =  -5.0075829242952E-01
(PID.TID 0000.0001) %MON obc_E_uVel_sd                =   7.1955978252626E-02
(PID.TID 0000.0001) %MON obc_E_uVel_Int               =  -3.4174003926399E+06
(PID.TID 0000.0001) %MON obc_N_vVel_max               =   6.7237875641040E-01
(PID.TID 0000.0001) %MON obc_N_vVel_min               =  -2.4209036730069E-01
(PID.TID 0000.0001) %MON obc_N_vVel_mean              =   7.3038734602984E-04
(PID.TID 0000.0001) %MON obc_N_vVel_sd                =   3.7508700694550E-02
(PID.TID 0000.0001) %MON obc_N_vVel_Int               =   1.0422367924262E+07
(PID.TID 0000.0001) %MON obc_S_vVel_max               =   1.2537186449195E+00
(PID.TID 0000.0001) %MON obc_S_vVel_min               =  -1.5685116468022E-01
(PID.TID 0000.0001) %MON obc_S_vVel_mean              =   1.7092185240587E-02
(PID.TID 0000.0001) %MON obc_S_vVel_sd                =   2.8584658814503E-02
(PID.TID 0000.0001) %MON obc_S_vVel_Int               =   5.1973641744933E+08
(PID.TID 0000.0001) %MON obc_E_theta_max              =   1.5981519699097E+01
(PID.TID 0000.0001) %MON obc_E_theta_min              =   1.3104037284851E+01
(PID.TID 0000.0001) %MON obc_E_theta_mean             =   1.4974089986960E+01
(PID.TID 0000.0001) %MON obc_E_theta_sd               =   6.0075505804650E-01
(PID.TID 0000.0001) %MON obc_N_theta_max              =   1.5721092224121E+01
(PID.TID 0000.0001) %MON obc_N_theta_min              =   9.7373789548874E-01
(PID.TID 0000.0001) %MON obc_N_theta_mean             =   5.3443110148828E+00
(PID.TID 0000.0001) %MON obc_N_theta_sd               =   3.5834807335781E+00
(PID.TID 0000.0001) %MON obc_S_theta_max              =   2.4979528427124E+01
(PID.TID 0000.0001) %MON obc_S_theta_min              =   1.5124862194061E+00
(PID.TID 0000.0001) %MON obc_S_theta_mean             =   5.4273114502690E+00
(PID.TID 0000.0001) %MON obc_S_theta_sd               =   5.1694562801555E+00
(PID.TID 0000.0001) %MON obc_E_salt_max               =   3.8703720092773E+01
(PID.TID 0000.0001) %MON obc_E_salt_min               =   3.6289142608643E+01
(PID.TID 0000.0001) %MON obc_E_salt_mean              =   3.6643778075730E+01
(PID.TID 0000.0001) %MON obc_E_salt_sd                =   5.5037722650442E-01
(PID.TID 0000.0001) %MON obc_N_salt_max               =   3.6066974639893E+01
(PID.TID 0000.0001) %MON obc_N_salt_min               =   3.2878395080566E+01
(PID.TID 0000.0001) %MON obc_N_salt_mean              =   3.5117165924185E+01
(PID.TID 0000.0001) %MON obc_N_salt_sd                =   3.1541903364831E-01
(PID.TID 0000.0001) %MON obc_S_salt_max               =   3.7600940704346E+01
(PID.TID 0000.0001) %MON obc_S_salt_min               =   3.4853485107422E+01
(PID.TID 0000.0001) %MON obc_S_salt_mean              =   3.5185630803177E+01
(PID.TID 0000.0001) %MON obc_S_salt_sd                =   4.9502018312198E-01
(PID.TID 0000.0001) // =======================================================
(PID.TID 0000.0001) // End OBCS MONITOR field statistics
(PID.TID 0000.0001) // =======================================================
(PID.TID 0000.0001) // =======================================================
(PID.TID 0000.0001) // Begin MONITOR ptracer field statistics
(PID.TID 0000.0001) // =======================================================
(PID.TID 0000.0001) %MON trcstat_ptracer01_max        =   0.0000000000000E+00
(PID.TID 0000.0001) %MON trcstat_ptracer01_min        =   0.0000000000000E+00
(PID.TID 0000.0001) %MON trcstat_ptracer01_mean       =   0.0000000000000E+00
(PID.TID 0000.0001) %MON trcstat_ptracer01_sd         =   0.0000000000000E+00
(PID.TID 0000.0001) %MON trcstat_ptracer01_del2       =   0.0000000000000E+00
(PID.TID 0000.0001) %MON trcstat_ptracer02_max        =   0.0000000000000E+00
(PID.TID 0000.0001) %MON trcstat_ptracer02_min        =   0.0000000000000E+00
(PID.TID 0000.0001) %MON trcstat_ptracer02_mean       =   0.0000000000000E+00
(PID.TID 0000.0001) %MON trcstat_ptracer02_sd         =   0.0000000000000E+00
(PID.TID 0000.0001) %MON trcstat_ptracer02_del2       =   0.0000000000000E+00
(PID.TID 0000.0001) // =======================================================
(PID.TID 0000.0001) // End MONITOR ptracer field statistics
(PID.TID 0000.0001) // =======================================================
(PID.TID 0000.0001) // =======================================================
(PID.TID 0000.0001) // Begin MONITOR EXF statistics
(PID.TID 0000.0001) // =======================================================
(PID.TID 0000.0001) %MON exf_tsnumber                 =              15811740
(PID.TID 0000.0001) %MON exf_time_sec                 =   1.2649392000000E+09
(PID.TID 0000.0001) %MON exf_ustress_max              =   1.0827344899497E+00
(PID.TID 0000.0001) %MON exf_ustress_min              =  -4.4652686577723E-01
(PID.TID 0000.0001) %MON exf_ustress_mean             =   1.3668604248722E-01
(PID.TID 0000.0001) %MON exf_ustress_sd               =   1.7972270280285E-01
(PID.TID 0000.0001) %MON exf_ustress_del2             =   1.0810185385125E-06
(PID.TID 0000.0001) %MON exf_vstress_max              =   8.4944932318270E-01
(PID.TID 0000.0001) %MON exf_vstress_min              =  -6.2143278419017E-01
(PID.TID 0000.0001) %MON exf_vstress_mean             =   1.7272768573212E-02
(PID.TID 0000.0001) %MON exf_vstress_sd               =   1.6020325828164E-01
(PID.TID 0000.0001) %MON exf_vstress_del2             =   9.6628754331147E-07
(PID.TID 0000.0001) %MON exf_hflux_max                =   1.3975245878502E+03
(PID.TID 0000.0001) %MON exf_hflux_min                =  -4.3992977020819E+02
(PID.TID 0000.0001) %MON exf_hflux_mean               =   7.0374568094686E+01
(PID.TID 0000.0001) %MON exf_hflux_sd                 =   3.0401208463785E+02
(PID.TID 0000.0001) %MON exf_hflux_del2               =   9.4851449746960E-02
(PID.TID 0000.0001) %MON exf_sflux_max                =   3.4051515406298E-07
(PID.TID 0000.0001) %MON exf_sflux_min                =  -2.5932604141181E-06
(PID.TID 0000.0001) %MON exf_sflux_mean               =  -9.5769478079666E-09
(PID.TID 0000.0001) %MON exf_sflux_sd                 =   1.7589925027941E-07
(PID.TID 0000.0001) %MON exf_sflux_del2               =   5.5348564217994E-11
(PID.TID 0000.0001) %MON exf_uwind_max                =   2.0572655066114E+01
(PID.TID 0000.0001) %MON exf_uwind_min                =  -1.3082316966577E+01
(PID.TID 0000.0001) %MON exf_uwind_mean               =   5.9731858493163E+00
(PID.TID 0000.0001) %MON exf_uwind_sd                 =   6.2662125088579E+00
(PID.TID 0000.0001) %MON exf_uwind_del2               =   2.6845055176543E-03
(PID.TID 0000.0001) %MON exf_vwind_max                =   1.9327101590439E+01
(PID.TID 0000.0001) %MON exf_vwind_min                =  -1.5645364959200E+01
(PID.TID 0000.0001) %MON exf_vwind_mean               =   1.0314196513147E+00
(PID.TID 0000.0001) %MON exf_vwind_sd                 =   6.8054648279544E+00
(PID.TID 0000.0001) %MON exf_vwind_del2               =   2.1119603207467E-03
(PID.TID 0000.0001) %MON exf_wspeed_max               =   2.2572416861130E+01
(PID.TID 0000.0001) %MON exf_wspeed_min               =   1.5055672148245E-02
(PID.TID 0000.0001) %MON exf_wspeed_mean              =   1.0168385544859E+01
(PID.TID 0000.0001) %MON exf_wspeed_sd                =   4.3504576574648E+00
(PID.TID 0000.0001) %MON exf_wspeed_del2              =   3.4154513213166E-03
(PID.TID 0000.0001) %MON exf_atemp_max                =   2.9661278047910E+02
(PID.TID 0000.0001) %MON exf_atemp_min                =   2.6654192168804E+02
(PID.TID 0000.0001) %MON exf_atemp_mean               =   2.8900579342599E+02
(PID.TID 0000.0001) %MON exf_atemp_sd                 =   5.0138313519777E+00
(PID.TID 0000.0001) %MON exf_atemp_del2               =   5.0410200458341E-03
(PID.TID 0000.0001) %MON exf_aqh_max                  =   1.4978307890767E-02
(PID.TID 0000.0001) %MON exf_aqh_min                  =   1.3190501440808E-03
(PID.TID 0000.0001) %MON exf_aqh_mean                 =   8.6368603412878E-03
(PID.TID 0000.0001) %MON exf_aqh_sd                   =   2.9369879803464E-03
(PID.TID 0000.0001) %MON exf_aqh_del2                 =   2.7761627586161E-06
(PID.TID 0000.0001) %MON exf_lwflux_max               =   1.7779480417257E+02
(PID.TID 0000.0001) %MON exf_lwflux_min               =  -1.2450197680375E+01
(PID.TID 0000.0001) %MON exf_lwflux_mean              =   6.0392955716542E+01
(PID.TID 0000.0001) %MON exf_lwflux_sd                =   2.8173529176446E+01
(PID.TID 0000.0001) %MON exf_lwflux_del2              =   2.0251852835819E-02
(PID.TID 0000.0001) %MON exf_evap_max                 =   3.6168066133456E-07
(PID.TID 0000.0001) %MON exf_evap_min                 =  -8.6691017701388E-08
(PID.TID 0000.0001) %MON exf_evap_mean                =   6.6454990069383E-08
(PID.TID 0000.0001) %MON exf_evap_sd                  =   5.9301886408561E-08
(PID.TID 0000.0001) %MON exf_evap_del2                =   2.7128894469809E-11
(PID.TID 0000.0001) %MON exf_precip_max               =   2.6093191973488E-06
(PID.TID 0000.0001) %MON exf_precip_min               =   0.0000000000000E+00
(PID.TID 0000.0001) %MON exf_precip_mean              =   7.4424893242880E-08
(PID.TID 0000.0001) %MON exf_precip_sd                =   1.6590953931096E-07
(PID.TID 0000.0001) %MON exf_precip_del2              =   5.7351335936524E-11
(PID.TID 0000.0001) %MON exf_swflux_max               =  -4.1968625537908E+00
(PID.TID 0000.0001) %MON exf_swflux_min               =  -6.1258515313950E+02
(PID.TID 0000.0001) %MON exf_swflux_mean              =  -1.9038324153520E+02
(PID.TID 0000.0001) %MON exf_swflux_sd                =   1.4195422345167E+02
(PID.TID 0000.0001) %MON exf_swflux_del2              =   7.1579092634685E-02
(PID.TID 0000.0001) %MON exf_swdown_max               =   6.7115600932015E+02
(PID.TID 0000.0001) %MON exf_swdown_min               =   4.6276331276851E+00
(PID.TID 0000.0001) %MON exf_swdown_mean              =   2.0964093971267E+02
(PID.TID 0000.0001) %MON exf_swdown_sd                =   1.5574662829770E+02
(PID.TID 0000.0001) %MON exf_swdown_del2              =   7.8743378250495E-02
(PID.TID 0000.0001) %MON exf_lwdown_max               =   4.1249584855229E+02
(PID.TID 0000.0001) %MON exf_lwdown_min               =   1.8317927390657E+02
(PID.TID 0000.0001) %MON exf_lwdown_mean              =   3.4388075634391E+02
(PID.TID 0000.0001) %MON exf_lwdown_sd                =   3.2363634613702E+01
(PID.TID 0000.0001) %MON exf_lwdown_del2              =   1.0547193290561E-01
(PID.TID 0000.0001) %MON exf_apressure_max            =   1.0283389337096E+05
(PID.TID 0000.0001) %MON exf_apressure_min            =   9.8369063197169E+04
(PID.TID 0000.0001) %MON exf_apressure_mean           =   1.0147742838414E+05
(PID.TID 0000.0001) %MON exf_apressure_sd             =   9.0399940430313E+02
(PID.TID 0000.0001) %MON exf_apressure_del2           =   3.1006665191923E+01
(PID.TID 0000.0001) %MON exf_runoff_max               =   4.6633690723924E-08
(PID.TID 0000.0001) %MON exf_runoff_min               =   0.0000000000000E+00
(PID.TID 0000.0001) %MON exf_runoff_mean              =   1.6070446344693E-09
(PID.TID 0000.0001) %MON exf_runoff_sd                =   5.4409705936606E-09
(PID.TID 0000.0001) %MON exf_runoff_del2              =   1.7602788524736E-12
(PID.TID 0000.0001) // =======================================================
(PID.TID 0000.0001) // End MONITOR EXF statistics
(PID.TID 0000.0001) // =======================================================
 cg2d: Sum(rhs),rhsMax =  -1.03473898835831E+05  3.64035591190639E-02
 cg2d: Sum(rhs),rhsMax =  -1.04409319269052E+05  3.65704745236375E-02
 cg2d: Sum(rhs),rhsMax =  -1.05334995009496E+05  3.67356454789128E-02
 cg2d: Sum(rhs),rhsMax =  -1.06250804671291E+05  3.68988521358062E-02
 cg2d: Sum(rhs),rhsMax =  -1.07156628093846E+05  3.70598833978030E-02
 cg2d: Sum(rhs),rhsMax =  -1.08052346356993E+05  3.72185332317353E-02
 cg2d: Sum(rhs),rhsMax =  -1.08937841796087E+05  3.73745960308050E-02
 cg2d: Sum(rhs),rhsMax =  -1.09812998016848E+05  3.75278615288592E-02
 cg2d: Sum(rhs),rhsMax =  -1.10677699910156E+05  3.76781097916181E-02
 cg2d: Sum(rhs),rhsMax =  -1.11531833666595E+05  3.78251065464630E-02
 cg2d: Sum(rhs),rhsMax =  -1.12375286790942E+05  3.79685990807810E-02
 cg2d: Sum(rhs),rhsMax =  -1.13207948116395E+05  3.81083130552171E-02
 cg2d: Sum(rhs),rhsMax =  -1.14029707818754E+05  3.82439502450229E-02
 cg2d: Sum(rhs),rhsMax =  -1.14840457430328E+05  3.83751872124507E-02
 cg2d: Sum(rhs),rhsMax =  -1.15640089853799E+05  3.85016748481896E-02
 cg2d: Sum(rhs),rhsMax =  -1.16428499375807E+05  3.86230388466522E-02
 cg2d: Sum(rhs),rhsMax =  -1.17205581680486E+05  3.87388812087690E-02
 cg2d: Sum(rhs),rhsMax =  -1.17971233862718E+05  3.88487829261504E-02
 cg2d: Sum(rhs),rhsMax =  -1.18725354441340E+05  3.89523079801776E-02
 cg2d: Sum(rhs),rhsMax =  -1.19467843372064E+05  3.90490087148468E-02
 cg2d: Sum(rhs),rhsMax =  -1.20198602060341E+05  3.91384324818099E-02
 cg2d: Sum(rhs),rhsMax =  -1.20917533373944E+05  3.92201292233280E-02
 cg2d: Sum(rhs),rhsMax =  -1.21624541655487E+05  3.92936594643655E-02
 cg2d: Sum(rhs),rhsMax =  -1.22319532734661E+05  3.93586020593550E-02
 cg2d: Sum(rhs),rhsMax =  -1.23002413940403E+05  3.94145610958657E-02
 cg2d: Sum(rhs),rhsMax =  -1.23673094112777E+05  3.94611710133338E-02
 cg2d: Sum(rhs),rhsMax =  -1.24331483614792E+05  3.94980994521217E-02
 cg2d: Sum(rhs),rhsMax =  -1.24977494343924E+05  3.95250478514050E-02
 cg2d: Sum(rhs),rhsMax =  -1.25611039743571E+05  3.95417497400902E-02
 cg2d: Sum(rhs),rhsMax =  -1.26232034814210E+05  3.95479670370029E-02
 cg2d: Sum(rhs),rhsMax =  -1.26840396124490E+05  3.95434847156482E-02
 cg2d: Sum(rhs),rhsMax =  -1.27436041822020E+05  3.95281044748258E-02
 cg2d: Sum(rhs),rhsMax =  -1.28018891644082E+05  3.95016381660130E-02
 cg2d: Sum(rhs),rhsMax =  -1.28588866928056E+05  3.94639017278081E-02
 cg2d: Sum(rhs),rhsMax =  -1.29145890621757E+05  3.94147102536496E-02
 cg2d: Sum(rhs),rhsMax =  -1.29689887293463E+05  3.93538746375917E-02
 cg2d: Sum(rhs),rhsMax =  -1.30220783141886E+05  3.92812001436821E-02
 cg2d: Sum(rhs),rhsMax =  -1.30738506005823E+05  3.91964867269089E-02
 cg2d: Sum(rhs),rhsMax =  -1.31242985373716E+05  3.90995321356879E-02
 cg2d: Sum(rhs),rhsMax =  -1.31734152392935E+05  3.89901328853184E-02
 cg2d: Sum(rhs),rhsMax =  -1.32211939878941E+05  3.88680889392640E-02
 cg2d: Sum(rhs),rhsMax =  -1.32676282324166E+05  3.87332089420770E-02
 cg2d: Sum(rhs),rhsMax =  -1.33127115906793E+05  3.85853154211003E-02
 cg2d: Sum(rhs),rhsMax =  -1.33564378499237E+05  3.84242496251380E-02
 cg2d: Sum(rhs),rhsMax =  -1.33988009676511E+05  3.82498759298616E-02
(PID.TID 0000.0001)      cg2d_init_res =   8.01117280297517E-01
(PID.TID 0000.0001)      cg2d_iters(min,last) =      -1     152
(PID.TID 0000.0001)      cg2d_last_res =   1.89793608299810E-11
(PID.TID 0000.0001) // =======================================================
(PID.TID 0000.0001) // Begin MONITOR dynamic field statistics
(PID.TID 0000.0001) // =======================================================
(PID.TID 0000.0001) %MON time_tsnumber                =              15811785
(PID.TID 0000.0001) %MON time_secondsf                =   1.2649428000000E+09
(PID.TID 0000.0001) %MON dynstat_eta_max              =   1.6320549890897E+00
(PID.TID 0000.0001) %MON dynstat_eta_min              =  -1.1061040430621E+00
(PID.TID 0000.0001) %MON dynstat_eta_mean             =   5.0636981058353E-01
(PID.TID 0000.0001) %MON dynstat_eta_sd               =   2.4871583444719E-01
(PID.TID 0000.0001) %MON dynstat_eta_del2             =   1.0801427065403E-06
(PID.TID 0000.0001) %MON dynstat_uvel_max             =   2.7663106517105E+00
(PID.TID 0000.0001) %MON dynstat_uvel_min             =  -2.7495164481927E+00
(PID.TID 0000.0001) %MON dynstat_uvel_mean            =   1.6557293778164E-02
(PID.TID 0000.0001) %MON dynstat_uvel_sd              =   9.3713890017630E-02
(PID.TID 0000.0001) %MON dynstat_uvel_del2            =   1.9341600173439E-06
(PID.TID 0000.0001) %MON dynstat_vvel_max             =   3.0530400293086E+00
(PID.TID 0000.0001) %MON dynstat_vvel_min             =  -3.0089865666351E+00
(PID.TID 0000.0001) %MON dynstat_vvel_mean            =   9.2776250104743E-03
(PID.TID 0000.0001) %MON dynstat_vvel_sd              =   8.5894492600821E-02
(PID.TID 0000.0001) %MON dynstat_vvel_del2            =   1.8109464218070E-06
(PID.TID 0000.0001) %MON dynstat_wvel_max             =   4.2540125773374E-02
(PID.TID 0000.0001) %MON dynstat_wvel_min             =  -3.1231701405273E-02
(PID.TID 0000.0001) %MON dynstat_wvel_mean            =   1.1785853810536E-05
(PID.TID 0000.0001) %MON dynstat_wvel_sd              =   1.6424698369505E-03
(PID.TID 0000.0001) %MON dynstat_wvel_del2            =   9.9973347526424E-08
(PID.TID 0000.0001) %MON dynstat_theta_max            =   2.4964857174269E+01
(PID.TID 0000.0001) %MON dynstat_theta_min            =  -2.8028767217260E+00
(PID.TID 0000.0001) %MON dynstat_theta_mean           =   5.5814072308590E+00
(PID.TID 0000.0001) %MON dynstat_theta_sd             =   4.6746462081268E+00
(PID.TID 0000.0001) %MON dynstat_theta_del2           =   7.4570190683149E-06
(PID.TID 0000.0001) %MON dynstat_salt_max             =   8.9654582165425E+01
(PID.TID 0000.0001) %MON dynstat_salt_min             =   2.0153590165966E+00
(PID.TID 0000.0001) %MON dynstat_salt_mean            =   3.5191238890442E+01
(PID.TID 0000.0001) %MON dynstat_salt_sd              =   4.5262412270008E-01
(PID.TID 0000.0001) %MON dynstat_salt_del2            =   1.4891941308552E-06
(PID.TID 0000.0001) %MON dynstat_sst_max              =   2.4942059310064E+01
(PID.TID 0000.0001) %MON dynstat_sst_min              =  -2.8028767217260E+00
(PID.TID 0000.0001) %MON dynstat_sst_mean             =   1.7716766341639E+01
(PID.TID 0000.0001) %MON dynstat_sst_sd               =   3.3990432339505E+00
(PID.TID 0000.0001) %MON dynstat_sst_del2             =   9.7426387373085E-05
(PID.TID 0000.0001) %MON dynstat_sss_max              =   8.9614554654134E+01
(PID.TID 0000.0001) %MON dynstat_sss_min              =   2.0153590165966E+00
(PID.TID 0000.0001) %MON dynstat_sss_mean             =   3.6425844881532E+01
(PID.TID 0000.0001) %MON dynstat_sss_sd               =   4.5375926127498E-01
(PID.TID 0000.0001) %MON dynstat_sss_del2             =   1.9175295445907E-05
(PID.TID 0000.0001) %MON forcing_qnet_max             =   1.3717983033965E+03
(PID.TID 0000.0001) %MON forcing_qnet_min             =  -4.7613820037938E+02
(PID.TID 0000.0001) %MON forcing_qnet_mean            =   2.8464377394355E-01
(PID.TID 0000.0001) %MON forcing_qnet_sd              =   3.2038401891388E+02
(PID.TID 0000.0001) %MON forcing_qnet_del2            =   5.8446526322190E-03
(PID.TID 0000.0001) %MON forcing_qsw_max              =  -1.5851128743779E+01
(PID.TID 0000.0001) %MON forcing_qsw_min              =  -6.5390274121498E+02
(PID.TID 0000.0001) %MON forcing_qsw_mean             =  -2.6533889925371E+02
(PID.TID 0000.0001) %MON forcing_qsw_sd               =   1.5436761214197E+02
(PID.TID 0000.0001) %MON forcing_qsw_del2             =   2.0253408508103E-04
(PID.TID 0000.0001) %MON forcing_empmr_max            =   3.1712170918083E-04
(PID.TID 0000.0001) %MON forcing_empmr_min            =  -1.8497545584171E-03
(PID.TID 0000.0001) %MON forcing_empmr_mean           =  -7.6128647432704E-06
(PID.TID 0000.0001) %MON forcing_empmr_sd             =   1.7283532648634E-04
(PID.TID 0000.0001) %MON forcing_empmr_del2           =   1.6967698656279E-09
(PID.TID 0000.0001) %MON forcing_fu_max               =   1.0964048736965E+00
(PID.TID 0000.0001) %MON forcing_fu_min               =  -4.3396026852431E-01
(PID.TID 0000.0001) %MON forcing_fu_mean              =   1.4101100991942E-01
(PID.TID 0000.0001) %MON forcing_fu_sd                =   1.8655880149738E-01
(PID.TID 0000.0001) %MON forcing_fu_del2              =   1.0216438202710E-06
(PID.TID 0000.0001) %MON forcing_fv_max               =   8.1186267295844E-01
(PID.TID 0000.0001) %MON forcing_fv_min               =  -6.8916258109102E-01
(PID.TID 0000.0001) %MON forcing_fv_mean              =   1.6015730441559E-02
(PID.TID 0000.0001) %MON forcing_fv_sd                =   1.6697541870035E-01
(PID.TID 0000.0001) %MON forcing_fv_del2              =   9.0094449314981E-07
(PID.TID 0000.0001) %MON trAdv_CFL_u_max              =   9.3803728624795E-02
(PID.TID 0000.0001) %MON trAdv_CFL_v_max              =   1.0543750629549E-01
(PID.TID 0000.0001) %MON trAdv_CFL_w_max              =   2.7073423683061E-01
(PID.TID 0000.0001) %MON advcfl_uvel_max              =   9.3803728108052E-02
(PID.TID 0000.0001) %MON advcfl_vvel_max              =   1.0545008227901E-01
(PID.TID 0000.0001) %MON advcfl_wvel_max              =   2.7356780163093E-01
(PID.TID 0000.0001) %MON advcfl_W_hf_max              =   2.7646130722511E-01
(PID.TID 0000.0001) %MON pe_b_mean                    =   1.2696062001436E-02
(PID.TID 0000.0001) %MON ke_max                       =   4.6479432183655E+00
(PID.TID 0000.0001) %MON ke_mean                      =   8.2156980676736E-03
(PID.TID 0000.0001) %MON ke_vol                       =   4.6123795034297E+16
(PID.TID 0000.0001) %MON vort_r_min                   =  -1.5182989971733E-03
(PID.TID 0000.0001) %MON vort_r_max                   =   1.6468473913301E-03
(PID.TID 0000.0001) %MON vort_a_mean                  =   8.2145904510949E-05
(PID.TID 0000.0001) %MON vort_a_sd                    =   1.4076098384630E-05
(PID.TID 0000.0001) %MON vort_p_mean                  =   8.4437935311545E-05
(PID.TID 0000.0001) %MON vort_p_sd                    =   3.4076707887604E-05
(PID.TID 0000.0001) %MON surfExpan_theta_mean         =   2.8651421114013E-04
(PID.TID 0000.0001) %MON surfExpan_salt_mean          =   7.2536677949057E-04
(PID.TID 0000.0001) // =======================================================
(PID.TID 0000.0001) // End MONITOR dynamic field statistics
(PID.TID 0000.0001) // =======================================================
(PID.TID 0000.0001) // =======================================================
(PID.TID 0000.0001) // Begin OBCS MONITOR field statistics
(PID.TID 0000.0001) // =======================================================
(PID.TID 0000.0001) %MON obc_E_uVel_max               =  -1.8957622837771E-01
(PID.TID 0000.0001) %MON obc_E_uVel_min               =  -5.5148593228675E-01
(PID.TID 0000.0001) %MON obc_E_uVel_mean              =  -3.1924409760809E-01
(PID.TID 0000.0001) %MON obc_E_uVel_sd                =   6.9814825785854E-02
(PID.TID 0000.0001) %MON obc_E_uVel_Int               =  -2.1786656776481E+06
(PID.TID 0000.0001) %MON obc_N_vVel_max               =   6.5352456501661E-01
(PID.TID 0000.0001) %MON obc_N_vVel_min               =  -2.4357271983847E-01
(PID.TID 0000.0001) %MON obc_N_vVel_mean              =   5.7011987392477E-03
(PID.TID 0000.0001) %MON obc_N_vVel_sd                =   3.7895191025348E-02
(PID.TID 0000.0001) %MON obc_N_vVel_Int               =   8.1354080396888E+07
(PID.TID 0000.0001) %MON obc_S_vVel_max               =   1.2259789372823E+00
(PID.TID 0000.0001) %MON obc_S_vVel_min               =  -1.6108829546127E-01
(PID.TID 0000.0001) %MON obc_S_vVel_mean              =   1.0087163049806E-02
(PID.TID 0000.0001) %MON obc_S_vVel_sd                =   2.7682205721681E-02
(PID.TID 0000.0001) %MON obc_S_vVel_Int               =   3.0672883027760E+08
(PID.TID 0000.0001) %MON obc_E_theta_max              =   1.5981519699097E+01
(PID.TID 0000.0001) %MON obc_E_theta_min              =   1.3104037284851E+01
(PID.TID 0000.0001) %MON obc_E_theta_mean             =   1.4974089986960E+01
(PID.TID 0000.0001) %MON obc_E_theta_sd               =   6.0075505804650E-01
(PID.TID 0000.0001) %MON obc_N_theta_max              =   1.5721092224121E+01
(PID.TID 0000.0001) %MON obc_N_theta_min              =   9.7373789548874E-01
(PID.TID 0000.0001) %MON obc_N_theta_mean             =   5.3443110148828E+00
(PID.TID 0000.0001) %MON obc_N_theta_sd               =   3.5834807335781E+00
(PID.TID 0000.0001) %MON obc_S_theta_max              =   2.4979528427124E+01
(PID.TID 0000.0001) %MON obc_S_theta_min              =   1.5124862194061E+00
(PID.TID 0000.0001) %MON obc_S_theta_mean             =   5.4273114502690E+00
(PID.TID 0000.0001) %MON obc_S_theta_sd               =   5.1694562801555E+00
(PID.TID 0000.0001) %MON obc_E_salt_max               =   3.8703720092773E+01
(PID.TID 0000.0001) %MON obc_E_salt_min               =   3.6289142608643E+01
(PID.TID 0000.0001) %MON obc_E_salt_mean              =   3.6643778075730E+01
(PID.TID 0000.0001) %MON obc_E_salt_sd                =   5.5037722650442E-01
(PID.TID 0000.0001) %MON obc_N_salt_max               =   3.6066974639893E+01
(PID.TID 0000.0001) %MON obc_N_salt_min               =   3.2878395080566E+01
(PID.TID 0000.0001) %MON obc_N_salt_mean              =   3.5117165924185E+01
(PID.TID 0000.0001) %MON obc_N_salt_sd                =   3.1541903364831E-01
(PID.TID 0000.0001) %MON obc_S_salt_max               =   3.7600940704346E+01
(PID.TID 0000.0001) %MON obc_S_salt_min               =   3.4853485107422E+01
(PID.TID 0000.0001) %MON obc_S_salt_mean              =   3.5185630803177E+01
(PID.TID 0000.0001) %MON obc_S_salt_sd                =   4.9502018312198E-01
(PID.TID 0000.0001) // =======================================================
(PID.TID 0000.0001) // End OBCS MONITOR field statistics
(PID.TID 0000.0001) // =======================================================
(PID.TID 0000.0001) // =======================================================
(PID.TID 0000.0001) // Begin MONITOR ptracer field statistics
(PID.TID 0000.0001) // =======================================================
(PID.TID 0000.0001) %MON trcstat_ptracer01_max        =   0.0000000000000E+00
(PID.TID 0000.0001) %MON trcstat_ptracer01_min        =   0.0000000000000E+00
(PID.TID 0000.0001) %MON trcstat_ptracer01_mean       =   0.0000000000000E+00
(PID.TID 0000.0001) %MON trcstat_ptracer01_sd         =   0.0000000000000E+00
(PID.TID 0000.0001) %MON trcstat_ptracer01_del2       =   0.0000000000000E+00
(PID.TID 0000.0001) %MON trcstat_ptracer02_max        =   0.0000000000000E+00
(PID.TID 0000.0001) %MON trcstat_ptracer02_min        =   0.0000000000000E+00
(PID.TID 0000.0001) %MON trcstat_ptracer02_mean       =   0.0000000000000E+00
(PID.TID 0000.0001) %MON trcstat_ptracer02_sd         =   0.0000000000000E+00
(PID.TID 0000.0001) %MON trcstat_ptracer02_del2       =   0.0000000000000E+00
(PID.TID 0000.0001) // =======================================================
(PID.TID 0000.0001) // End MONITOR ptracer field statistics
(PID.TID 0000.0001) // =======================================================
(PID.TID 0000.0001) // =======================================================
(PID.TID 0000.0001) // Begin MONITOR EXF statistics
(PID.TID 0000.0001) // =======================================================
(PID.TID 0000.0001) %MON exf_tsnumber                 =              15811785
(PID.TID 0000.0001) %MON exf_time_sec                 =   1.2649428000000E+09
(PID.TID 0000.0001) %MON exf_ustress_max              =   1.0990244967736E+00
(PID.TID 0000.0001) %MON exf_ustress_min              =  -4.3520361893324E-01
(PID.TID 0000.0001) %MON exf_ustress_mean             =   1.4111271458477E-01
(PID.TID 0000.0001) %MON exf_ustress_sd               =   1.8681299721799E-01
(PID.TID 0000.0001) %MON exf_ustress_del2             =   1.1167205757193E-06
(PID.TID 0000.0001) %MON exf_vstress_max              =   8.2004672670771E-01
(PID.TID 0000.0001) %MON exf_vstress_min              =  -6.7781933055896E-01
(PID.TID 0000.0001) %MON exf_vstress_mean             =   1.6003312957947E-02
(PID.TID 0000.0001) %MON exf_vstress_sd               =   1.6725650150136E-01
(PID.TID 0000.0001) %MON exf_vstress_del2             =   1.0009999933132E-06
(PID.TID 0000.0001) %MON exf_hflux_max                =   1.3420233995963E+03
(PID.TID 0000.0001) %MON exf_hflux_min                =  -4.7591519919450E+02
(PID.TID 0000.0001) %MON exf_hflux_mean               =  -2.0361358490697E+00
(PID.TID 0000.0001) %MON exf_hflux_sd                 =   3.1784729427933E+02
(PID.TID 0000.0001) %MON exf_hflux_del2               =   9.6462233019392E-02
(PID.TID 0000.0001) %MON exf_sflux_max                =   3.1665890096428E-07
(PID.TID 0000.0001) %MON exf_sflux_min                =  -1.8410067852115E-06
(PID.TID 0000.0001) %MON exf_sflux_mean               =  -7.5614676112826E-09
(PID.TID 0000.0001) %MON exf_sflux_sd                 =   1.7280228450234E-07
(PID.TID 0000.0001) %MON exf_sflux_del2               =   5.3984283408327E-11
(PID.TID 0000.0001) %MON exf_uwind_max                =   2.0640458519724E+01
(PID.TID 0000.0001) %MON exf_uwind_min                =  -1.3957756922403E+01
(PID.TID 0000.0001) %MON exf_uwind_mean               =   6.0691338208882E+00
(PID.TID 0000.0001) %MON exf_uwind_sd                 =   6.2994894718366E+00
(PID.TID 0000.0001) %MON exf_uwind_del2               =   2.7123260081495E-03
(PID.TID 0000.0001) %MON exf_vwind_max                =   1.9484008007937E+01
(PID.TID 0000.0001) %MON exf_vwind_min                =  -1.5761038339224E+01
(PID.TID 0000.0001) %MON exf_vwind_mean               =   1.0292388978770E+00
(PID.TID 0000.0001) %MON exf_vwind_sd                 =   6.9652068065607E+00
(PID.TID 0000.0001) %MON exf_vwind_del2               =   2.1614057796205E-03
(PID.TID 0000.0001) %MON exf_wspeed_max               =   2.2775671613153E+01
(PID.TID 0000.0001) %MON exf_wspeed_min               =   4.3197064426088E-03
(PID.TID 0000.0001) %MON exf_wspeed_mean              =   1.0324336123093E+01
(PID.TID 0000.0001) %MON exf_wspeed_sd                =   4.4158210024973E+00
(PID.TID 0000.0001) %MON exf_wspeed_del2              =   3.4679498162428E-03
(PID.TID 0000.0001) %MON exf_atemp_max                =   2.9673802466034E+02
(PID.TID 0000.0001) %MON exf_atemp_min                =   2.6622696031888E+02
(PID.TID 0000.0001) %MON exf_atemp_mean               =   2.8901707896880E+02
(PID.TID 0000.0001) %MON exf_atemp_sd                 =   5.0408692824877E+00
(PID.TID 0000.0001) %MON exf_atemp_del2               =   5.0471879955092E-03
(PID.TID 0000.0001) %MON exf_aqh_max                  =   1.4962572128854E-02
(PID.TID 0000.0001) %MON exf_aqh_min                  =   1.2786670414502E-03
(PID.TID 0000.0001) %MON exf_aqh_mean                 =   8.6532335327992E-03
(PID.TID 0000.0001) %MON exf_aqh_sd                   =   2.9214205740390E-03
(PID.TID 0000.0001) %MON exf_aqh_del2                 =   2.7798854029384E-06
(PID.TID 0000.0001) %MON exf_lwflux_max               =   1.7868313512209E+02
(PID.TID 0000.0001) %MON exf_lwflux_min               =  -8.9570530754094E+00
(PID.TID 0000.0001) %MON exf_lwflux_mean              =   6.0788613958283E+01
(PID.TID 0000.0001) %MON exf_lwflux_sd                =   2.8914300634133E+01
(PID.TID 0000.0001) %MON exf_lwflux_del2              =   2.0453391049506E-02
(PID.TID 0000.0001) %MON exf_evap_max                 =   3.4959801725784E-07
(PID.TID 0000.0001) %MON exf_evap_min                 =  -7.7003352806808E-08
(PID.TID 0000.0001) %MON exf_evap_mean                =   6.7568960367187E-08
(PID.TID 0000.0001) %MON exf_evap_sd                  =   6.0290801009712E-08
(PID.TID 0000.0001) %MON exf_evap_del2                =   2.7589279882047E-11
(PID.TID 0000.0001) %MON exf_precip_max               =   1.8668439830988E-06
(PID.TID 0000.0001) %MON exf_precip_min               =   0.0000000000000E+00
(PID.TID 0000.0001) %MON exf_precip_mean              =   7.3523383344000E-08
(PID.TID 0000.0001) %MON exf_precip_sd                =   1.6218217757071E-07
(PID.TID 0000.0001) %MON exf_precip_del2              =   5.5839020143531E-11
(PID.TID 0000.0001) %MON exf_swflux_max               =  -1.6184643543836E+01
(PID.TID 0000.0001) %MON exf_swflux_min               =  -6.5464917373937E+02
(PID.TID 0000.0001) %MON exf_swflux_mean              =  -2.6698883578979E+02
(PID.TID 0000.0001) %MON exf_swflux_sd                =   1.5450964788097E+02
(PID.TID 0000.0001) %MON exf_swflux_del2              =   9.2985838052413E-02
(PID.TID 0000.0001) %MON exf_swdown_max               =   7.1511594875399E+02
(PID.TID 0000.0001) %MON exf_swdown_min               =   1.8022927334430E+01
(PID.TID 0000.0001) %MON exf_swdown_mean              =   2.9400337180590E+02
(PID.TID 0000.0001) %MON exf_swdown_sd                =   1.6926008869049E+02
(PID.TID 0000.0001) %MON exf_swdown_del2              =   1.0229580438052E-01
(PID.TID 0000.0001) %MON exf_lwdown_max               =   4.1271133044973E+02
(PID.TID 0000.0001) %MON exf_lwdown_min               =   1.8189319080417E+02
(PID.TID 0000.0001) %MON exf_lwdown_mean              =   3.4350520040741E+02
(PID.TID 0000.0001) %MON exf_lwdown_sd                =   3.3024071271017E+01
(PID.TID 0000.0001) %MON exf_lwdown_del2              =   1.0537971598886E-01
(PID.TID 0000.0001) %MON exf_apressure_max            =   1.0281464759269E+05
(PID.TID 0000.0001) %MON exf_apressure_min            =   9.8310211966233E+04
(PID.TID 0000.0001) %MON exf_apressure_mean           =   1.0146318088223E+05
(PID.TID 0000.0001) %MON exf_apressure_sd             =   9.0580041472336E+02
(PID.TID 0000.0001) %MON exf_apressure_del2           =   3.1002323206529E+01
(PID.TID 0000.0001) %MON exf_runoff_max               =   4.6633690723924E-08
(PID.TID 0000.0001) %MON exf_runoff_min               =   0.0000000000000E+00
(PID.TID 0000.0001) %MON exf_runoff_mean              =   1.6070446344693E-09
(PID.TID 0000.0001) %MON exf_runoff_sd                =   5.4409705936606E-09
(PID.TID 0000.0001) %MON exf_runoff_del2              =   1.7602788524736E-12
(PID.TID 0000.0001) // =======================================================
(PID.TID 0000.0001) // End MONITOR EXF statistics
(PID.TID 0000.0001) // =======================================================
 cg2d: Sum(rhs),rhsMax =  -1.34397950724321E+05  3.80620857697821E-02
 cg2d: Sum(rhs),rhsMax =  -1.34794144647015E+05  3.78607508581247E-02
 cg2d: Sum(rhs),rhsMax =  -1.35176536175280E+05  3.76457996144577E-02
 cg2d: Sum(rhs),rhsMax =  -1.35545071773675E+05  3.74172207542648E-02
 cg2d: Sum(rhs),rhsMax =  -1.35899699647921E+05  3.71750611890929E-02
 cg2d: Sum(rhs),rhsMax =  -1.36240369752022E+05  3.69194198991890E-02
 cg2d: Sum(rhs),rhsMax =  -1.36567033795136E+05  3.66504423320104E-02
 cg2d: Sum(rhs),rhsMax =  -1.36879645248281E+05  3.63683165426179E-02
 cg2d: Sum(rhs),rhsMax =  -1.37178159350788E+05  3.60732714187286E-02
 cg2d: Sum(rhs),rhsMax =  -1.37462533116587E+05  3.57655770952567E-02
 cg2d: Sum(rhs),rhsMax =  -1.37732725340237E+05  3.54455467035033E-02
 cg2d: Sum(rhs),rhsMax =  -1.37988696602783E+05  3.51135386782678E-02
 cg2d: Sum(rhs),rhsMax =  -1.38230409277366E+05  3.47699588118661E-02
 cg2d: Sum(rhs),rhsMax =  -1.38457827534654E+05  3.44152612285470E-02
 cg2d: Sum(rhs),rhsMax =  -1.38670917348014E+05  3.40499478705766E-02
 cg2d: Sum(rhs),rhsMax =  -1.38869646498516E+05  3.36745662778211E-02
 cg2d: Sum(rhs),rhsMax =  -1.39053984579681E+05  3.32897056691887E-02
 cg2d: Sum(rhs),rhsMax =  -1.39223903002036E+05  3.28959929650449E-02
 cg2d: Sum(rhs),rhsMax =  -1.39379374997436E+05  3.24940830405587E-02
 cg2d: Sum(rhs),rhsMax =  -1.39520375623180E+05  3.20846529525876E-02
 cg2d: Sum(rhs),rhsMax =  -1.39646881765890E+05  3.16683956902092E-02
 cg2d: Sum(rhs),rhsMax =  -1.39758872145194E+05  3.12460133863800E-02
 cg2d: Sum(rhs),rhsMax =  -1.39856327317164E+05  3.08182110321409E-02
 cg2d: Sum(rhs),rhsMax =  -1.39939229677544E+05  3.03856886704427E-02
 cg2d: Sum(rhs),rhsMax =  -1.40007563464760E+05  2.99491392001317E-02
 cg2d: Sum(rhs),rhsMax =  -1.40061314762693E+05  2.95092449572826E-02
 cg2d: Sum(rhs),rhsMax =  -1.40100471503244E+05  2.90666750343701E-02
 cg2d: Sum(rhs),rhsMax =  -1.40125023468665E+05  2.86220832983363E-02
 cg2d: Sum(rhs),rhsMax =  -1.40134962293671E+05  2.81761070565602E-02
 cg2d: Sum(rhs),rhsMax =  -1.40130281467316E+05  2.77293663668046E-02
 cg2d: Sum(rhs),rhsMax =  -1.40110976334666E+05  2.72824633031005E-02
 cg2d: Sum(rhs),rhsMax =  -1.40077044098216E+05  2.68359806739439E-02
 cg2d: Sum(rhs),rhsMax =  -1.40028483819112E+05  2.63904808955219E-02
 cg2d: Sum(rhs),rhsMax =  -1.39965296418113E+05  2.59465038976960E-02
 cg2d: Sum(rhs),rhsMax =  -1.39887484676366E+05  2.55045640265811E-02
 cg2d: Sum(rhs),rhsMax =  -1.39795053235901E+05  2.50651460398427E-02
 cg2d: Sum(rhs),rhsMax =  -1.39688008599960E+05  2.46287003366699E-02
 cg2d: Sum(rhs),rhsMax =  -1.39566359133031E+05  2.41956376205161E-02
 cg2d: Sum(rhs),rhsMax =  -1.39430115060724E+05  2.37663234718734E-02
 cg2d: Sum(rhs),rhsMax =  -1.39279288469341E+05  2.33410727806977E-02
 cg2d: Sum(rhs),rhsMax =  -1.39113893305301E+05  2.29201444634600E-02
 cg2d: Sum(rhs),rhsMax =  -1.38933945374244E+05  2.25037368718416E-02
 cg2d: Sum(rhs),rhsMax =  -1.38739462340002E+05  2.20919841171089E-02
 cg2d: Sum(rhs),rhsMax =  -1.38530463723243E+05  2.16849534560249E-02
 cg2d: Sum(rhs),rhsMax =  -1.38306970899978E+05  2.12826438667126E-02
(PID.TID 0000.0001)      cg2d_init_res =   6.36317664581759E-01
(PID.TID 0000.0001)      cg2d_iters(min,last) =      -1     150
(PID.TID 0000.0001)      cg2d_last_res =   1.91645718440635E-11
(PID.TID 0000.0001) // =======================================================
(PID.TID 0000.0001) // Begin MONITOR dynamic field statistics
(PID.TID 0000.0001) // =======================================================
(PID.TID 0000.0001) %MON time_tsnumber                =              15811830
(PID.TID 0000.0001) %MON time_secondsf                =   1.2649464000000E+09
(PID.TID 0000.0001) %MON dynstat_eta_max              =   1.4734668126990E+00
(PID.TID 0000.0001) %MON dynstat_eta_min              =  -1.2290985040946E+00
(PID.TID 0000.0001) %MON dynstat_eta_mean             =   5.2269210376427E-01
(PID.TID 0000.0001) %MON dynstat_eta_sd               =   2.7624248825731E-01
(PID.TID 0000.0001) %MON dynstat_eta_del2             =   1.0450216383721E-06
(PID.TID 0000.0001) %MON dynstat_uvel_max             =   2.7734061935040E+00
(PID.TID 0000.0001) %MON dynstat_uvel_min             =  -2.6510223986709E+00
(PID.TID 0000.0001) %MON dynstat_uvel_mean            =   1.7313619154375E-02
(PID.TID 0000.0001) %MON dynstat_uvel_sd              =   9.3536092643983E-02
(PID.TID 0000.0001) %MON dynstat_uvel_del2            =   1.9564811068497E-06
(PID.TID 0000.0001) %MON dynstat_vvel_max             =   2.9873525672034E+00
(PID.TID 0000.0001) %MON dynstat_vvel_min             =  -2.9810724838980E+00
(PID.TID 0000.0001) %MON dynstat_vvel_mean            =   4.2902202810635E-03
(PID.TID 0000.0001) %MON dynstat_vvel_sd              =   8.6046287485995E-02
(PID.TID 0000.0001) %MON dynstat_vvel_del2            =   1.8303534952138E-06
(PID.TID 0000.0001) %MON dynstat_wvel_max             =   4.2560260135396E-02
(PID.TID 0000.0001) %MON dynstat_wvel_min             =  -3.3032713598764E-02
(PID.TID 0000.0001) %MON dynstat_wvel_mean            =  -6.7106603656072E-06
(PID.TID 0000.0001) %MON dynstat_wvel_sd              =   1.6399831371118E-03
(PID.TID 0000.0001) %MON dynstat_wvel_del2            =   1.0046854572804E-07
(PID.TID 0000.0001) %MON dynstat_theta_max            =   2.4965438093629E+01
(PID.TID 0000.0001) %MON dynstat_theta_min            =  -2.8035617212720E+00
(PID.TID 0000.0001) %MON dynstat_theta_mean           =   5.5814307995225E+00
(PID.TID 0000.0001) %MON dynstat_theta_sd             =   4.6747858211235E+00
(PID.TID 0000.0001) %MON dynstat_theta_del2           =   7.4465169781846E-06
(PID.TID 0000.0001) %MON dynstat_salt_max             =   8.9653509665277E+01
(PID.TID 0000.0001) %MON dynstat_salt_min             =   2.0153841246062E+00
(PID.TID 0000.0001) %MON dynstat_salt_mean            =   3.5191237421944E+01
(PID.TID 0000.0001) %MON dynstat_salt_sd              =   4.5262844760701E-01
(PID.TID 0000.0001) %MON dynstat_salt_del2            =   1.4882461320978E-06
(PID.TID 0000.0001) %MON dynstat_sst_max              =   2.4943542109259E+01
(PID.TID 0000.0001) %MON dynstat_sst_min              =  -2.8035617212720E+00
(PID.TID 0000.0001) %MON dynstat_sst_mean             =   1.7725545202170E+01
(PID.TID 0000.0001) %MON dynstat_sst_sd               =   3.4023212032642E+00
(PID.TID 0000.0001) %MON dynstat_sst_del2             =   9.7188392051407E-05
(PID.TID 0000.0001) %MON dynstat_sss_max              =   8.9583922898942E+01
(PID.TID 0000.0001) %MON dynstat_sss_min              =   2.0153841246062E+00
(PID.TID 0000.0001) %MON dynstat_sss_mean             =   3.6426060511890E+01
(PID.TID 0000.0001) %MON dynstat_sss_sd               =   4.5410637882466E-01
(PID.TID 0000.0001) %MON dynstat_sss_del2             =   1.9155662818078E-05
(PID.TID 0000.0001) %MON forcing_qnet_max             =   1.3148597373009E+03
(PID.TID 0000.0001) %MON forcing_qnet_min             =  -5.8520085226875E+02
(PID.TID 0000.0001) %MON forcing_qnet_mean            =  -5.5358993932048E+01
(PID.TID 0000.0001) %MON forcing_qnet_sd              =   3.1374401071045E+02
(PID.TID 0000.0001) %MON forcing_qnet_del2            =   5.9003989950726E-03
(PID.TID 0000.0001) %MON forcing_qsw_max              =  -2.3102145016204E+01
(PID.TID 0000.0001) %MON forcing_qsw_min              =  -6.7893016825032E+02
(PID.TID 0000.0001) %MON forcing_qsw_mean             =  -3.2586374458917E+02
(PID.TID 0000.0001) %MON forcing_qsw_sd               =   1.5678844980386E+02
(PID.TID 0000.0001) %MON forcing_qsw_del2             =   2.3647094949385E-04
(PID.TID 0000.0001) %MON forcing_empmr_max            =   3.2587747260976E-04
(PID.TID 0000.0001) %MON forcing_empmr_min            =  -1.7671637917340E-03
(PID.TID 0000.0001) %MON forcing_empmr_mean           =  -6.8752570056487E-06
(PID.TID 0000.0001) %MON forcing_empmr_sd             =   1.7456367418349E-04
(PID.TID 0000.0001) %MON forcing_empmr_del2           =   1.6932567757138E-09
(PID.TID 0000.0001) %MON forcing_fu_max               =   1.1160470472284E+00
(PID.TID 0000.0001) %MON forcing_fu_min               =  -4.5195348786429E-01
(PID.TID 0000.0001) %MON forcing_fu_mean              =   1.4712013806084E-01
(PID.TID 0000.0001) %MON forcing_fu_sd                =   1.9325605673263E-01
(PID.TID 0000.0001) %MON forcing_fu_del2              =   1.0522932680861E-06
(PID.TID 0000.0001) %MON forcing_fv_max               =   7.6232931931736E-01
(PID.TID 0000.0001) %MON forcing_fv_min               =  -6.7490173542723E-01
(PID.TID 0000.0001) %MON forcing_fv_mean              =   1.4161438776997E-02
(PID.TID 0000.0001) %MON forcing_fv_sd                =   1.7436850218525E-01
(PID.TID 0000.0001) %MON forcing_fv_del2              =   9.2837794506367E-07
(PID.TID 0000.0001) %MON trAdv_CFL_u_max              =   9.4044333661846E-02
(PID.TID 0000.0001) %MON trAdv_CFL_v_max              =   1.0316892441320E-01
(PID.TID 0000.0001) %MON trAdv_CFL_w_max              =   2.8880669558081E-01
(PID.TID 0000.0001) %MON advcfl_uvel_max              =   9.4044333143777E-02
(PID.TID 0000.0001) %MON advcfl_vvel_max              =   1.0318127865469E-01
(PID.TID 0000.0001) %MON advcfl_wvel_max              =   2.9104550717446E-01
(PID.TID 0000.0001) %MON advcfl_W_hf_max              =   2.9404884068348E-01
(PID.TID 0000.0001) %MON pe_b_mean                    =   1.3113233615293E-02
(PID.TID 0000.0001) %MON ke_max                       =   4.5568807772637E+00
(PID.TID 0000.0001) %MON ke_mean                      =   8.1912504341531E-03
(PID.TID 0000.0001) %MON ke_vol                       =   4.6123795034297E+16
(PID.TID 0000.0001) %MON vort_r_min                   =  -1.2777867400402E-03
(PID.TID 0000.0001) %MON vort_r_max                   =   1.2517597354829E-03
(PID.TID 0000.0001) %MON vort_a_mean                  =   8.2145902646311E-05
(PID.TID 0000.0001) %MON vort_a_sd                    =   1.4075344981628E-05
(PID.TID 0000.0001) %MON vort_p_mean                  =   8.4437933394880E-05
(PID.TID 0000.0001) %MON vort_p_sd                    =   3.4060769642838E-05
(PID.TID 0000.0001) %MON surfExpan_theta_mean         =  -2.3908105216027E-04
(PID.TID 0000.0001) %MON surfExpan_salt_mean          =  -3.8777147691298E-04
(PID.TID 0000.0001) // =======================================================
(PID.TID 0000.0001) // End MONITOR dynamic field statistics
(PID.TID 0000.0001) // =======================================================
(PID.TID 0000.0001) // =======================================================
(PID.TID 0000.0001) // Begin OBCS MONITOR field statistics
(PID.TID 0000.0001) // =======================================================
(PID.TID 0000.0001) %MON obc_E_uVel_max               =   3.0917433165362E-02
(PID.TID 0000.0001) %MON obc_E_uVel_min               =  -2.9872687033937E-01
(PID.TID 0000.0001) %MON obc_E_uVel_mean              =  -7.1598907051846E-02
(PID.TID 0000.0001) %MON obc_E_uVel_sd                =   6.8824141635286E-02
(PID.TID 0000.0001) %MON obc_E_uVel_Int               =  -4.8862322755445E+05
(PID.TID 0000.0001) %MON obc_N_vVel_max               =   4.7849491190687E-01
(PID.TID 0000.0001) %MON obc_N_vVel_min               =  -2.4587099580234E-01
(PID.TID 0000.0001) %MON obc_N_vVel_mean              =   8.5861422124861E-03
(PID.TID 0000.0001) %MON obc_N_vVel_sd                =   3.8360717057281E-02
(PID.TID 0000.0001) %MON obc_N_vVel_Int               =   1.2252119875159E+08
(PID.TID 0000.0001) %MON obc_S_vVel_max               =   1.2058294781248E+00
(PID.TID 0000.0001) %MON obc_S_vVel_min               =  -1.6405194980551E-01
(PID.TID 0000.0001) %MON obc_S_vVel_mean              =   6.5228019936386E-05
(PID.TID 0000.0001) %MON obc_S_vVel_sd                =   2.6694080933736E-02
(PID.TID 0000.0001) %MON obc_S_vVel_Int               =   1.9834431304049E+06
(PID.TID 0000.0001) %MON obc_E_theta_max              =   1.5981519699097E+01
(PID.TID 0000.0001) %MON obc_E_theta_min              =   1.3104037284851E+01
(PID.TID 0000.0001) %MON obc_E_theta_mean             =   1.4974089986960E+01
(PID.TID 0000.0001) %MON obc_E_theta_sd               =   6.0075505804650E-01
(PID.TID 0000.0001) %MON obc_N_theta_max              =   1.5721092224121E+01
(PID.TID 0000.0001) %MON obc_N_theta_min              =   9.7373789548874E-01
(PID.TID 0000.0001) %MON obc_N_theta_mean             =   5.3443110148828E+00
(PID.TID 0000.0001) %MON obc_N_theta_sd               =   3.5834807335781E+00
(PID.TID 0000.0001) %MON obc_S_theta_max              =   2.4979528427124E+01
(PID.TID 0000.0001) %MON obc_S_theta_min              =   1.5124862194061E+00
(PID.TID 0000.0001) %MON obc_S_theta_mean             =   5.4273114502690E+00
(PID.TID 0000.0001) %MON obc_S_theta_sd               =   5.1694562801555E+00
(PID.TID 0000.0001) %MON obc_E_salt_max               =   3.8703720092773E+01
(PID.TID 0000.0001) %MON obc_E_salt_min               =   3.6289142608643E+01
(PID.TID 0000.0001) %MON obc_E_salt_mean              =   3.6643778075730E+01
(PID.TID 0000.0001) %MON obc_E_salt_sd                =   5.5037722650442E-01
(PID.TID 0000.0001) %MON obc_N_salt_max               =   3.6066974639893E+01
(PID.TID 0000.0001) %MON obc_N_salt_min               =   3.2878395080566E+01
(PID.TID 0000.0001) %MON obc_N_salt_mean              =   3.5117165924185E+01
(PID.TID 0000.0001) %MON obc_N_salt_sd                =   3.1541903364831E-01
(PID.TID 0000.0001) %MON obc_S_salt_max               =   3.7600940704346E+01
(PID.TID 0000.0001) %MON obc_S_salt_min               =   3.4853485107422E+01
(PID.TID 0000.0001) %MON obc_S_salt_mean              =   3.5185630803177E+01
(PID.TID 0000.0001) %MON obc_S_salt_sd                =   4.9502018312198E-01
(PID.TID 0000.0001) // =======================================================
(PID.TID 0000.0001) // End OBCS MONITOR field statistics
(PID.TID 0000.0001) // =======================================================
(PID.TID 0000.0001) // =======================================================
(PID.TID 0000.0001) // Begin MONITOR ptracer field statistics
(PID.TID 0000.0001) // =======================================================
(PID.TID 0000.0001) %MON trcstat_ptracer01_max        =   0.0000000000000E+00
(PID.TID 0000.0001) %MON trcstat_ptracer01_min        =   0.0000000000000E+00
(PID.TID 0000.0001) %MON trcstat_ptracer01_mean       =   0.0000000000000E+00
(PID.TID 0000.0001) %MON trcstat_ptracer01_sd         =   0.0000000000000E+00
(PID.TID 0000.0001) %MON trcstat_ptracer01_del2       =   0.0000000000000E+00
(PID.TID 0000.0001) %MON trcstat_ptracer02_max        =   0.0000000000000E+00
(PID.TID 0000.0001) %MON trcstat_ptracer02_min        =   0.0000000000000E+00
(PID.TID 0000.0001) %MON trcstat_ptracer02_mean       =   0.0000000000000E+00
(PID.TID 0000.0001) %MON trcstat_ptracer02_sd         =   0.0000000000000E+00
(PID.TID 0000.0001) %MON trcstat_ptracer02_del2       =   0.0000000000000E+00
(PID.TID 0000.0001) // =======================================================
(PID.TID 0000.0001) // End MONITOR ptracer field statistics
(PID.TID 0000.0001) // =======================================================
(PID.TID 0000.0001) // =======================================================
(PID.TID 0000.0001) // Begin MONITOR EXF statistics
(PID.TID 0000.0001) // =======================================================
(PID.TID 0000.0001) %MON exf_tsnumber                 =              15811830
(PID.TID 0000.0001) %MON exf_time_sec                 =   1.2649464000000E+09
(PID.TID 0000.0001) %MON exf_ustress_max              =   1.1202938718686E+00
(PID.TID 0000.0001) %MON exf_ustress_min              =  -4.5263533203592E-01
(PID.TID 0000.0001) %MON exf_ustress_mean             =   1.4725948540877E-01
(PID.TID 0000.0001) %MON exf_ustress_sd               =   1.9351663945049E-01
(PID.TID 0000.0001) %MON exf_ustress_del2             =   1.1501027963229E-06
(PID.TID 0000.0001) %MON exf_vstress_max              =   7.6196234614293E-01
(PID.TID 0000.0001) %MON exf_vstress_min              =  -6.7683307305009E-01
(PID.TID 0000.0001) %MON exf_vstress_mean             =   1.4133547774081E-02
(PID.TID 0000.0001) %MON exf_vstress_sd               =   1.7464881481954E-01
(PID.TID 0000.0001) %MON exf_vstress_del2             =   1.0306283953082E-06
(PID.TID 0000.0001) %MON exf_hflux_max                =   1.2820442349456E+03
(PID.TID 0000.0001) %MON exf_hflux_min                =  -5.8406359305292E+02
(PID.TID 0000.0001) %MON exf_hflux_mean               =  -5.7097349196963E+01
(PID.TID 0000.0001) %MON exf_hflux_sd                 =   3.1125842630808E+02
(PID.TID 0000.0001) %MON exf_hflux_del2               =   9.6010343177714E-02
(PID.TID 0000.0001) %MON exf_sflux_max                =   3.2662854629998E-07
(PID.TID 0000.0001) %MON exf_sflux_min                =  -1.7773498153275E-06
(PID.TID 0000.0001) %MON exf_sflux_mean               =  -6.8691022900038E-09
(PID.TID 0000.0001) %MON exf_sflux_sd                 =   1.7467248093586E-07
(PID.TID 0000.0001) %MON exf_sflux_del2               =   5.4438353966707E-11
(PID.TID 0000.0001) %MON exf_uwind_max                =   2.0778740699312E+01
(PID.TID 0000.0001) %MON exf_uwind_min                =  -1.4322712752812E+01
(PID.TID 0000.0001) %MON exf_uwind_mean               =   6.2300893771001E+00
(PID.TID 0000.0001) %MON exf_uwind_sd                 =   6.3063812744969E+00
(PID.TID 0000.0001) %MON exf_uwind_del2               =   2.7482727880227E-03
(PID.TID 0000.0001) %MON exf_vwind_max                =   1.8965248826023E+01
(PID.TID 0000.0001) %MON exf_vwind_min                =  -1.5087239433616E+01
(PID.TID 0000.0001) %MON exf_vwind_mean               =   9.7299567146791E-01
(PID.TID 0000.0001) %MON exf_vwind_sd                 =   7.1361661269644E+00
(PID.TID 0000.0001) %MON exf_vwind_del2               =   2.2122377576900E-03
(PID.TID 0000.0001) %MON exf_wspeed_max               =   2.2713837257429E+01
(PID.TID 0000.0001) %MON exf_wspeed_min               =   8.2834242370890E-03
(PID.TID 0000.0001) %MON exf_wspeed_mean              =   1.0520155680082E+01
(PID.TID 0000.0001) %MON exf_wspeed_sd                =   4.4477376789959E+00
(PID.TID 0000.0001) %MON exf_wspeed_del2              =   3.5277797150651E-03
(PID.TID 0000.0001) %MON exf_atemp_max                =   2.9686459518663E+02
(PID.TID 0000.0001) %MON exf_atemp_min                =   2.6653719668119E+02
(PID.TID 0000.0001) %MON exf_atemp_mean               =   2.8902553291851E+02
(PID.TID 0000.0001) %MON exf_atemp_sd                 =   5.0732701494340E+00
(PID.TID 0000.0001) %MON exf_atemp_del2               =   5.0528836094156E-03
(PID.TID 0000.0001) %MON exf_aqh_max                  =   1.5030766554734E-02
(PID.TID 0000.0001) %MON exf_aqh_min                  =   1.2494667328192E-03
(PID.TID 0000.0001) %MON exf_aqh_mean                 =   8.6718375513078E-03
(PID.TID 0000.0001) %MON exf_aqh_sd                   =   2.9059654882168E-03
(PID.TID 0000.0001) %MON exf_aqh_del2                 =   2.7842464943834E-06
(PID.TID 0000.0001) %MON exf_lwflux_max               =   1.8082716204333E+02
(PID.TID 0000.0001) %MON exf_lwflux_min               =  -7.9545640117677E+00
(PID.TID 0000.0001) %MON exf_lwflux_mean              =   6.1475080767247E+01
(PID.TID 0000.0001) %MON exf_lwflux_sd                =   2.9468733985055E+01
(PID.TID 0000.0001) %MON exf_lwflux_del2              =   2.0714052701698E-02
(PID.TID 0000.0001) %MON exf_evap_max                 =   3.5914706962209E-07
(PID.TID 0000.0001) %MON exf_evap_min                 =  -7.4708764449703E-08
(PID.TID 0000.0001) %MON exf_evap_mean                =   6.8811872682294E-08
(PID.TID 0000.0001) %MON exf_evap_sd                  =   6.0835418220108E-08
(PID.TID 0000.0001) %MON exf_evap_del2                =   2.7996815963324E-11
(PID.TID 0000.0001) %MON exf_precip_max               =   1.7603030138204E-06
(PID.TID 0000.0001) %MON exf_precip_min               =   0.0000000000000E+00
(PID.TID 0000.0001) %MON exf_precip_mean              =   7.4073930337828E-08
(PID.TID 0000.0001) %MON exf_precip_sd                =   1.6347148652969E-07
(PID.TID 0000.0001) %MON exf_precip_del2              =   5.6168016395030E-11
(PID.TID 0000.0001) %MON exf_swflux_max               =  -2.3205623423633E+01
(PID.TID 0000.0001) %MON exf_swflux_min               =  -6.7880305245559E+02
(PID.TID 0000.0001) %MON exf_swflux_mean              =  -3.2687542852274E+02
(PID.TID 0000.0001) %MON exf_swflux_sd                =   1.5679012568242E+02
(PID.TID 0000.0001) %MON exf_swflux_del2              =   1.0932617619975E-01
(PID.TID 0000.0001) %MON exf_swdown_max               =   7.4165033069870E+02
(PID.TID 0000.0001) %MON exf_swdown_min               =   2.5979098764947E+01
(PID.TID 0000.0001) %MON exf_swdown_mean              =   3.5995467395122E+02
(PID.TID 0000.0001) %MON exf_swdown_sd                =   1.7151811029030E+02
(PID.TID 0000.0001) %MON exf_swdown_del2              =   1.2028279782775E-01
(PID.TID 0000.0001) %MON exf_lwdown_max               =   4.1090977298599E+02
(PID.TID 0000.0001) %MON exf_lwdown_min               =   1.8148569704950E+02
(PID.TID 0000.0001) %MON exf_lwdown_mean              =   3.4284715015144E+02
(PID.TID 0000.0001) %MON exf_lwdown_sd                =   3.3504730331818E+01
(PID.TID 0000.0001) %MON exf_lwdown_del2              =   1.0519349146722E-01
(PID.TID 0000.0001) %MON exf_apressure_max            =   1.0274551631616E+05
(PID.TID 0000.0001) %MON exf_apressure_min            =   9.8165981019047E+04
(PID.TID 0000.0001) %MON exf_apressure_mean           =   1.0142820498872E+05
(PID.TID 0000.0001) %MON exf_apressure_sd             =   9.3308319880623E+02
(PID.TID 0000.0001) %MON exf_apressure_del2           =   3.0991300604668E+01
(PID.TID 0000.0001) %MON exf_runoff_max               =   4.6633690723924E-08
(PID.TID 0000.0001) %MON exf_runoff_min               =   0.0000000000000E+00
(PID.TID 0000.0001) %MON exf_runoff_mean              =   1.6070446344693E-09
(PID.TID 0000.0001) %MON exf_runoff_sd                =   5.4409705936606E-09
(PID.TID 0000.0001) %MON exf_runoff_del2              =   1.7602788524736E-12
(PID.TID 0000.0001) // =======================================================
(PID.TID 0000.0001) // End MONITOR EXF statistics
(PID.TID 0000.0001) // =======================================================
 cg2d: Sum(rhs),rhsMax =  -1.38069007099750E+05  2.08849860438281E-02
 cg2d: Sum(rhs),rhsMax =  -1.37816597403682E+05  2.04919039320184E-02
 cg2d: Sum(rhs),rhsMax =  -1.37549768742190E+05  2.01032520879985E-02
 cg2d: Sum(rhs),rhsMax =  -1.37268549892589E+05  1.97188165470313E-02
 cg2d: Sum(rhs),rhsMax =  -1.36972971476336E+05  1.93383167323078E-02
 cg2d: Sum(rhs),rhsMax =  -1.36663065956177E+05  1.89614090069281E-02
 cg2d: Sum(rhs),rhsMax =  -1.36338867632930E+05  1.85876922729047E-02
 cg2d: Sum(rhs),rhsMax =  -1.36000412642166E+05  1.82167154685228E-02
 cg2d: Sum(rhs),rhsMax =  -1.35647738950532E+05  1.78479865548981E-02
 cg2d: Sum(rhs),rhsMax =  -1.35280886351977E+05  1.74809823812704E-02
 cg2d: Sum(rhs),rhsMax =  -1.34899896463609E+05  1.71151587958083E-02
 cg2d: Sum(rhs),rhsMax =  -1.34504812721462E+05  1.67499604280337E-02
 cg2d: Sum(rhs),rhsMax =  -1.34095680375899E+05  1.63848296886556E-02
 cg2d: Sum(rhs),rhsMax =  -1.33672546486907E+05  1.60192146721203E-02
 cg2d: Sum(rhs),rhsMax =  -1.33235459919044E+05  1.56525757675720E-02
 cg2d: Sum(rhs),rhsMax =  -1.32784471336289E+05  1.52843909624145E-02
 cg2d: Sum(rhs),rhsMax =  -1.32319633196513E+05  1.49141595009742E-02
 cg2d: Sum(rhs),rhsMax =  -1.31840999745877E+05  1.45414039001563E-02
 cg2d: Sum(rhs),rhsMax =  -1.31348627012852E+05  1.41656708452972E-02
 cg2d: Sum(rhs),rhsMax =  -1.30842572802157E+05  1.37865305613398E-02
 cg2d: Sum(rhs),rhsMax =  -1.30322896688315E+05  1.34035748242128E-02
 cg2d: Sum(rhs),rhsMax =  -1.29789660009151E+05  1.30164134082177E-02
 cg2d: Sum(rhs),rhsMax =  -1.29242925858880E+05  1.26246700909142E-02
 cg2d: Sum(rhs),rhsMax =  -1.28682759081158E+05  1.22279782938432E-02
 cg2d: Sum(rhs),rhsMax =  -1.28109226261727E+05  1.18259768184739E-02
 cg2d: Sum(rhs),rhsMax =  -1.27522395720998E+05  1.14183063908744E-02
 cg2d: Sum(rhs),rhsMax =  -1.26922337506253E+05  1.10046075885496E-02
 cg2d: Sum(rhs),rhsMax =  -1.26309123383784E+05  1.05845204614766E-02
 cg2d: Sum(rhs),rhsMax =  -1.25682826830642E+05  1.01576861774856E-02
 cg2d: Sum(rhs),rhsMax =  -1.25043523026327E+05  9.72375073056662E-03
 cg2d: Sum(rhs),rhsMax =  -1.24391288844102E+05  9.28237048659985E-03
 cg2d: Sum(rhs),rhsMax =  -1.23726202842232E+05  8.83321892410134E-03
 cg2d: Sum(rhs),rhsMax =  -1.23048345254850E+05  8.37599498551717E-03
 cg2d: Sum(rhs),rhsMax =  -1.22357797982766E+05  7.91042958932902E-03
 cg2d: Sum(rhs),rhsMax =  -1.21654644583891E+05  7.43629272358689E-03
 cg2d: Sum(rhs),rhsMax =  -1.20938970263599E+05  6.95339788234153E-03
 cg2d: Sum(rhs),rhsMax =  -1.20210861864734E+05  6.46160511399123E-03
 cg2d: Sum(rhs),rhsMax =  -1.19470407857520E+05  5.96082105875377E-03
 cg2d: Sum(rhs),rhsMax =  -1.18717698329134E+05  5.45099762899651E-03
 cg2d: Sum(rhs),rhsMax =  -1.17952824973208E+05  4.93212853290274E-03
 cg2d: Sum(rhs),rhsMax =  -1.17175881078951E+05  4.40424439322376E-03
 cg2d: Sum(rhs),rhsMax =  -1.16386961520222E+05  3.86740692072439E-03
 cg2d: Sum(rhs),rhsMax =  -1.15586162744254E+05  3.32170282575586E-03
 cg2d: Sum(rhs),rhsMax =  -1.14773582760278E+05  2.76723790705313E-03
 cg2d: Sum(rhs),rhsMax =  -1.13949321127827E+05  2.43931952986797E-03
(PID.TID 0000.0001)      cg2d_init_res =   7.07316401738029E-01
(PID.TID 0000.0001)      cg2d_iters(min,last) =      -1     151
(PID.TID 0000.0001)      cg2d_last_res =   1.83032440803079E-11
(PID.TID 0000.0001) // =======================================================
(PID.TID 0000.0001) // Begin MONITOR dynamic field statistics
(PID.TID 0000.0001) // =======================================================
(PID.TID 0000.0001) %MON time_tsnumber                =              15811875
(PID.TID 0000.0001) %MON time_secondsf                =   1.2649500000000E+09
(PID.TID 0000.0001) %MON dynstat_eta_max              =   1.2533689777625E+00
(PID.TID 0000.0001) %MON dynstat_eta_min              =  -1.2422046953788E+00
(PID.TID 0000.0001) %MON dynstat_eta_mean             =   4.3063925119066E-01
(PID.TID 0000.0001) %MON dynstat_eta_sd               =   3.3457634705389E-01
(PID.TID 0000.0001) %MON dynstat_eta_del2             =   1.0365053760333E-06
(PID.TID 0000.0001) %MON dynstat_uvel_max             =   2.7112324481671E+00
(PID.TID 0000.0001) %MON dynstat_uvel_min             =  -2.6059022251039E+00
(PID.TID 0000.0001) %MON dynstat_uvel_mean            =   1.4052297948546E-02
(PID.TID 0000.0001) %MON dynstat_uvel_sd              =   9.3421501760377E-02
(PID.TID 0000.0001) %MON dynstat_uvel_del2            =   1.9758908758840E-06
(PID.TID 0000.0001) %MON dynstat_vvel_max             =   2.9595402828799E+00
(PID.TID 0000.0001) %MON dynstat_vvel_min             =  -2.9489561972971E+00
(PID.TID 0000.0001) %MON dynstat_vvel_mean            =  -2.2295273475034E-03
(PID.TID 0000.0001) %MON dynstat_vvel_sd              =   8.6300327831464E-02
(PID.TID 0000.0001) %MON dynstat_vvel_del2            =   1.8493819297992E-06
(PID.TID 0000.0001) %MON dynstat_wvel_max             =   4.1360237224264E-02
(PID.TID 0000.0001) %MON dynstat_wvel_min             =  -3.2776581510319E-02
(PID.TID 0000.0001) %MON dynstat_wvel_mean            =  -2.4121785515675E-05
(PID.TID 0000.0001) %MON dynstat_wvel_sd              =   1.6428848324295E-03
(PID.TID 0000.0001) %MON dynstat_wvel_del2            =   1.0073017432074E-07
(PID.TID 0000.0001) %MON dynstat_theta_max            =   2.4966849078178E+01
(PID.TID 0000.0001) %MON dynstat_theta_min            =  -2.7800441863008E+00
(PID.TID 0000.0001) %MON dynstat_theta_mean           =   5.5817676515851E+00
(PID.TID 0000.0001) %MON dynstat_theta_sd             =   4.6752788231086E+00
(PID.TID 0000.0001) %MON dynstat_theta_del2           =   7.4343409679847E-06
(PID.TID 0000.0001) %MON dynstat_salt_max             =   8.9650043042820E+01
(PID.TID 0000.0001) %MON dynstat_salt_min             =   2.0154131715502E+00
(PID.TID 0000.0001) %MON dynstat_salt_mean            =   3.5191267509758E+01
(PID.TID 0000.0001) %MON dynstat_salt_sd              =   4.5267417180754E-01
(PID.TID 0000.0001) %MON dynstat_salt_del2            =   1.4872276439453E-06
(PID.TID 0000.0001) %MON dynstat_sst_max              =   2.4946682649348E+01
(PID.TID 0000.0001) %MON dynstat_sst_min              =  -2.7800441863008E+00
(PID.TID 0000.0001) %MON dynstat_sst_mean             =   1.7734730342242E+01
(PID.TID 0000.0001) %MON dynstat_sst_sd               =   3.4068028218972E+00
(PID.TID 0000.0001) %MON dynstat_sst_del2             =   9.6924902358198E-05
(PID.TID 0000.0001) %MON dynstat_sss_max              =   8.9560925621180E+01
(PID.TID 0000.0001) %MON dynstat_sss_min              =   2.0154131715502E+00
(PID.TID 0000.0001) %MON dynstat_sss_mean             =   3.6426229909844E+01
(PID.TID 0000.0001) %MON dynstat_sss_sd               =   4.5440765797963E-01
(PID.TID 0000.0001) %MON dynstat_sss_del2             =   1.9092432344124E-05
(PID.TID 0000.0001) %MON forcing_qnet_max             =   1.2162027899618E+03
(PID.TID 0000.0001) %MON forcing_qnet_min             =  -6.5138327927939E+02
(PID.TID 0000.0001) %MON forcing_qnet_mean            =  -7.7051488332830E+01
(PID.TID 0000.0001) %MON forcing_qnet_sd              =   2.9504599274895E+02
(PID.TID 0000.0001) %MON forcing_qnet_del2            =   5.9485401427972E-03
(PID.TID 0000.0001) %MON forcing_qsw_max              =  -1.7452854148031E+01
(PID.TID 0000.0001) %MON forcing_qsw_min              =  -6.6732967832418E+02
(PID.TID 0000.0001) %MON forcing_qsw_mean             =  -3.5220722190040E+02
(PID.TID 0000.0001) %MON forcing_qsw_sd               =   1.5800084707904E+02
(PID.TID 0000.0001) %MON forcing_qsw_del2             =   2.4783228711244E-04
(PID.TID 0000.0001) %MON forcing_empmr_max            =   3.2573692062314E-04
(PID.TID 0000.0001) %MON forcing_empmr_min            =  -2.2814393157671E-03
(PID.TID 0000.0001) %MON forcing_empmr_mean           =  -7.7506949499218E-06
(PID.TID 0000.0001) %MON forcing_empmr_sd             =   1.8276303955732E-04
(PID.TID 0000.0001) %MON forcing_empmr_del2           =   1.7543957744470E-09
(PID.TID 0000.0001) %MON forcing_fu_max               =   1.1562557702737E+00
(PID.TID 0000.0001) %MON forcing_fu_min               =  -4.4110552177842E-01
(PID.TID 0000.0001) %MON forcing_fu_mean              =   1.5303136520360E-01
(PID.TID 0000.0001) %MON forcing_fu_sd                =   1.9784155605999E-01
(PID.TID 0000.0001) %MON forcing_fu_del2              =   1.0861354134946E-06
(PID.TID 0000.0001) %MON forcing_fv_max               =   8.4804614268471E-01
(PID.TID 0000.0001) %MON forcing_fv_min               =  -7.1422648837934E-01
(PID.TID 0000.0001) %MON forcing_fv_mean              =   1.1749349695421E-02
(PID.TID 0000.0001) %MON forcing_fv_sd                =   1.8104112095646E-01
(PID.TID 0000.0001) %MON forcing_fv_del2              =   9.5729960923829E-07
(PID.TID 0000.0001) %MON trAdv_CFL_u_max              =   9.1936063886877E-02
(PID.TID 0000.0001) %MON trAdv_CFL_v_max              =   1.0220849797864E-01
(PID.TID 0000.0001) %MON trAdv_CFL_w_max              =   3.2740495759973E-01
(PID.TID 0000.0001) %MON advcfl_uvel_max              =   9.1936063380422E-02
(PID.TID 0000.0001) %MON advcfl_vvel_max              =   1.0222065984782E-01
(PID.TID 0000.0001) %MON advcfl_wvel_max              =   3.1927562095837E-01
(PID.TID 0000.0001) %MON advcfl_W_hf_max              =   3.2740495759973E-01
(PID.TID 0000.0001) %MON pe_b_mean                    =   1.0796085727460E-02
(PID.TID 0000.0001) %MON ke_max                       =   4.6572250727732E+00
(PID.TID 0000.0001) %MON ke_mean                      =   8.1448100613027E-03
(PID.TID 0000.0001) %MON ke_vol                       =   4.6123795034297E+16
(PID.TID 0000.0001) %MON vort_r_min                   =  -9.1459523462178E-04
(PID.TID 0000.0001) %MON vort_r_max                   =   8.6646191464170E-04
(PID.TID 0000.0001) %MON vort_a_mean                  =   8.2145900182382E-05
(PID.TID 0000.0001) %MON vort_a_sd                    =   1.4062074739122E-05
(PID.TID 0000.0001) %MON vort_p_mean                  =   8.4437930862202E-05
(PID.TID 0000.0001) %MON vort_p_sd                    =   3.4029389333615E-05
(PID.TID 0000.0001) %MON surfExpan_theta_mean         =  -7.1533398493974E-04
(PID.TID 0000.0001) %MON surfExpan_salt_mean          =  -1.4206826599229E-03
(PID.TID 0000.0001) // =======================================================
(PID.TID 0000.0001) // End MONITOR dynamic field statistics
(PID.TID 0000.0001) // =======================================================
(PID.TID 0000.0001) // =======================================================
(PID.TID 0000.0001) // Begin OBCS MONITOR field statistics
(PID.TID 0000.0001) // =======================================================
(PID.TID 0000.0001) %MON obc_E_uVel_max               =   2.7524970169335E-01
(PID.TID 0000.0001) %MON obc_E_uVel_min               =  -4.4334425780923E-02
(PID.TID 0000.0001) %MON obc_E_uVel_mean              =   1.7695883162917E-01
(PID.TID 0000.0001) %MON obc_E_uVel_sd                =   7.1937386555354E-02
(PID.TID 0000.0001) %MON obc_E_uVel_Int               =   1.2076468624346E+06
(PID.TID 0000.0001) %MON obc_N_vVel_max               =   2.0515178323893E-01
(PID.TID 0000.0001) %MON obc_N_vVel_min               =  -3.1447924548288E-01
(PID.TID 0000.0001) %MON obc_N_vVel_mean              =   8.5839294573523E-03
(PID.TID 0000.0001) %MON obc_N_vVel_sd                =   3.8464010227486E-02
(PID.TID 0000.0001) %MON obc_N_vVel_Int               =   1.2248962352202E+08
(PID.TID 0000.0001) %MON obc_S_vVel_max               =   1.1958970777096E+00
(PID.TID 0000.0001) %MON obc_S_vVel_min               =  -1.6450585904149E-01
(PID.TID 0000.0001) %MON obc_S_vVel_mean              =  -1.0492515644560E-02
(PID.TID 0000.0001) %MON obc_S_vVel_sd                =   2.6537956888998E-02
(PID.TID 0000.0001) %MON obc_S_vVel_Int               =  -3.1905472672886E+08
(PID.TID 0000.0001) %MON obc_E_theta_max              =   1.5981519699097E+01
(PID.TID 0000.0001) %MON obc_E_theta_min              =   1.3104037284851E+01
(PID.TID 0000.0001) %MON obc_E_theta_mean             =   1.4974089986960E+01
(PID.TID 0000.0001) %MON obc_E_theta_sd               =   6.0075505804650E-01
(PID.TID 0000.0001) %MON obc_N_theta_max              =   1.5721092224121E+01
(PID.TID 0000.0001) %MON obc_N_theta_min              =   9.7373789548874E-01
(PID.TID 0000.0001) %MON obc_N_theta_mean             =   5.3443110148828E+00
(PID.TID 0000.0001) %MON obc_N_theta_sd               =   3.5834807335781E+00
(PID.TID 0000.0001) %MON obc_S_theta_max              =   2.4979528427124E+01
(PID.TID 0000.0001) %MON obc_S_theta_min              =   1.5124862194061E+00
(PID.TID 0000.0001) %MON obc_S_theta_mean             =   5.4273114502690E+00
(PID.TID 0000.0001) %MON obc_S_theta_sd               =   5.1694562801555E+00
(PID.TID 0000.0001) %MON obc_E_salt_max               =   3.8703720092773E+01
(PID.TID 0000.0001) %MON obc_E_salt_min               =   3.6289142608643E+01
(PID.TID 0000.0001) %MON obc_E_salt_mean              =   3.6643778075730E+01
(PID.TID 0000.0001) %MON obc_E_salt_sd                =   5.5037722650442E-01
(PID.TID 0000.0001) %MON obc_N_salt_max               =   3.6066974639893E+01
(PID.TID 0000.0001) %MON obc_N_salt_min               =   3.2878395080566E+01
(PID.TID 0000.0001) %MON obc_N_salt_mean              =   3.5117165924185E+01
(PID.TID 0000.0001) %MON obc_N_salt_sd                =   3.1541903364831E-01
(PID.TID 0000.0001) %MON obc_S_salt_max               =   3.7600940704346E+01
(PID.TID 0000.0001) %MON obc_S_salt_min               =   3.4853485107422E+01
(PID.TID 0000.0001) %MON obc_S_salt_mean              =   3.5185630803177E+01
(PID.TID 0000.0001) %MON obc_S_salt_sd                =   4.9502018312198E-01
(PID.TID 0000.0001) // =======================================================
(PID.TID 0000.0001) // End OBCS MONITOR field statistics
(PID.TID 0000.0001) // =======================================================
(PID.TID 0000.0001) // =======================================================
(PID.TID 0000.0001) // Begin MONITOR ptracer field statistics
(PID.TID 0000.0001) // =======================================================
(PID.TID 0000.0001) %MON trcstat_ptracer01_max        =   0.0000000000000E+00
(PID.TID 0000.0001) %MON trcstat_ptracer01_min        =   0.0000000000000E+00
(PID.TID 0000.0001) %MON trcstat_ptracer01_mean       =   0.0000000000000E+00
(PID.TID 0000.0001) %MON trcstat_ptracer01_sd         =   0.0000000000000E+00
(PID.TID 0000.0001) %MON trcstat_ptracer01_del2       =   0.0000000000000E+00
(PID.TID 0000.0001) %MON trcstat_ptracer02_max        =   0.0000000000000E+00
(PID.TID 0000.0001) %MON trcstat_ptracer02_min        =   0.0000000000000E+00
(PID.TID 0000.0001) %MON trcstat_ptracer02_mean       =   0.0000000000000E+00
(PID.TID 0000.0001) %MON trcstat_ptracer02_sd         =   0.0000000000000E+00
(PID.TID 0000.0001) %MON trcstat_ptracer02_del2       =   0.0000000000000E+00
(PID.TID 0000.0001) // =======================================================
(PID.TID 0000.0001) // End MONITOR ptracer field statistics
(PID.TID 0000.0001) // =======================================================
(PID.TID 0000.0001) // =======================================================
(PID.TID 0000.0001) // Begin MONITOR EXF statistics
(PID.TID 0000.0001) // =======================================================
(PID.TID 0000.0001) %MON exf_tsnumber                 =              15811875
(PID.TID 0000.0001) %MON exf_time_sec                 =   1.2649500000000E+09
(PID.TID 0000.0001) %MON exf_ustress_max              =   1.1599496861864E+00
(PID.TID 0000.0001) %MON exf_ustress_min              =  -4.4997520504824E-01
(PID.TID 0000.0001) %MON exf_ustress_mean             =   1.5316998323613E-01
(PID.TID 0000.0001) %MON exf_ustress_sd               =   1.9808014118139E-01
(PID.TID 0000.0001) %MON exf_ustress_del2             =   1.1867649612885E-06
(PID.TID 0000.0001) %MON exf_vstress_max              =   8.5619614667474E-01
(PID.TID 0000.0001) %MON exf_vstress_min              =  -7.1548588582817E-01
(PID.TID 0000.0001) %MON exf_vstress_mean             =   1.1712175325330E-02
(PID.TID 0000.0001) %MON exf_vstress_sd               =   1.8131028224981E-01
(PID.TID 0000.0001) %MON exf_vstress_del2             =   1.0623961430389E-06
(PID.TID 0000.0001) %MON exf_hflux_max                =   1.2006816224738E+03
(PID.TID 0000.0001) %MON exf_hflux_min                =  -6.4873771217335E+02
(PID.TID 0000.0001) %MON exf_hflux_mean               =  -7.7888043541065E+01
(PID.TID 0000.0001) %MON exf_hflux_sd                 =   2.9265563655845E+02
(PID.TID 0000.0001) %MON exf_hflux_del2               =   9.2008140043685E-02
(PID.TID 0000.0001) %MON exf_sflux_max                =   3.2549963037996E-07
(PID.TID 0000.0001) %MON exf_sflux_min                =  -2.2821775271374E-06
(PID.TID 0000.0001) %MON exf_sflux_mean               =  -7.7674325588647E-09
(PID.TID 0000.0001) %MON exf_sflux_sd                 =   1.8299534329262E-07
(PID.TID 0000.0001) %MON exf_sflux_del2               =   5.6963971272375E-11
(PID.TID 0000.0001) %MON exf_uwind_max                =   2.0892893829305E+01
(PID.TID 0000.0001) %MON exf_uwind_min                =  -1.4738700778334E+01
(PID.TID 0000.0001) %MON exf_uwind_mean               =   6.4039612764821E+00
(PID.TID 0000.0001) %MON exf_uwind_sd                 =   6.2811845629534E+00
(PID.TID 0000.0001) %MON exf_uwind_del2               =   2.7801195092160E-03
(PID.TID 0000.0001) %MON exf_vwind_max                =   1.9838157892422E+01
(PID.TID 0000.0001) %MON exf_vwind_min                =  -1.4319298210002E+01
(PID.TID 0000.0001) %MON exf_vwind_mean               =   8.5392368710177E-01
(PID.TID 0000.0001) %MON exf_vwind_sd                 =   7.2977305496994E+00
(PID.TID 0000.0001) %MON exf_vwind_del2               =   2.2575741846878E-03
(PID.TID 0000.0001) %MON exf_wspeed_max               =   2.2863745636656E+01
(PID.TID 0000.0001) %MON exf_wspeed_min               =   2.3988092200117E-03
(PID.TID 0000.0001) %MON exf_wspeed_mean              =   1.0720303310048E+01
(PID.TID 0000.0001) %MON exf_wspeed_sd                =   4.4187275684910E+00
(PID.TID 0000.0001) %MON exf_wspeed_del2              =   3.5810459215087E-03
(PID.TID 0000.0001) %MON exf_atemp_max                =   2.9690776144590E+02
(PID.TID 0000.0001) %MON exf_atemp_min                =   2.6706215429697E+02
(PID.TID 0000.0001) %MON exf_atemp_mean               =   2.8902759615093E+02
(PID.TID 0000.0001) %MON exf_atemp_sd                 =   5.0822295108416E+00
(PID.TID 0000.0001) %MON exf_atemp_del2               =   5.0545023701573E-03
(PID.TID 0000.0001) %MON exf_aqh_max                  =   1.5034896731930E-02
(PID.TID 0000.0001) %MON exf_aqh_min                  =   1.2053515663425E-03
(PID.TID 0000.0001) %MON exf_aqh_mean                 =   8.6945218764690E-03
(PID.TID 0000.0001) %MON exf_aqh_sd                   =   2.8878510430714E-03
(PID.TID 0000.0001) %MON exf_aqh_del2                 =   2.7895981311127E-06
(PID.TID 0000.0001) %MON exf_lwflux_max               =   1.8120770914537E+02
(PID.TID 0000.0001) %MON exf_lwflux_min               =  -1.7243858851074E+01
(PID.TID 0000.0001) %MON exf_lwflux_mean              =   6.2240821150113E+01
(PID.TID 0000.0001) %MON exf_lwflux_sd                =   2.9940434621240E+01
(PID.TID 0000.0001) %MON exf_lwflux_del2              =   2.0999499385612E-02
(PID.TID 0000.0001) %MON exf_evap_max                 =   3.4519732097849E-07
(PID.TID 0000.0001) %MON exf_evap_min                 =  -7.9032909696573E-08
(PID.TID 0000.0001) %MON exf_evap_mean                =   7.0019514062979E-08
(PID.TID 0000.0001) %MON exf_evap_sd                  =   6.0907620723745E-08
(PID.TID 0000.0001) %MON exf_evap_del2                =   2.8294601073458E-11
(PID.TID 0000.0001) %MON exf_precip_max               =   2.2787086032132E-06
(PID.TID 0000.0001) %MON exf_precip_min               =   0.0000000000000E+00
(PID.TID 0000.0001) %MON exf_precip_mean              =   7.6179901987374E-08
(PID.TID 0000.0001) %MON exf_precip_sd                =   1.7109221309961E-07
(PID.TID 0000.0001) %MON exf_precip_del2              =   5.8520268991783E-11
(PID.TID 0000.0001) %MON exf_swflux_max               =  -1.7312242621578E+01
(PID.TID 0000.0001) %MON exf_swflux_min               =  -6.6665354360831E+02
(PID.TID 0000.0001) %MON exf_swflux_mean              =  -3.5232669815318E+02
(PID.TID 0000.0001) %MON exf_swflux_sd                =   1.5807937689378E+02
(PID.TID 0000.0001) %MON exf_swflux_del2              =   1.1649875388275E-01
(PID.TID 0000.0001) %MON exf_swdown_max               =   7.2893961952832E+02
(PID.TID 0000.0001) %MON exf_swdown_min               =   1.9177630895491E+01
(PID.TID 0000.0001) %MON exf_swdown_mean              =   3.8798045677925E+02
(PID.TID 0000.0001) %MON exf_swdown_sd                =   1.7288624966121E+02
(PID.TID 0000.0001) %MON exf_swdown_del2              =   1.2818531319185E-01
(PID.TID 0000.0001) %MON exf_lwdown_max               =   4.1040814698186E+02
(PID.TID 0000.0001) %MON exf_lwdown_min               =   1.8204154563351E+02
(PID.TID 0000.0001) %MON exf_lwdown_mean              =   3.4210988633533E+02
(PID.TID 0000.0001) %MON exf_lwdown_sd                =   3.3971593916319E+01
(PID.TID 0000.0001) %MON exf_lwdown_del2              =   1.0497130970420E-01
(PID.TID 0000.0001) %MON exf_apressure_max            =   1.0272864049720E+05
(PID.TID 0000.0001) %MON exf_apressure_min            =   9.8130214244072E+04
(PID.TID 0000.0001) %MON exf_apressure_mean           =   1.0138197940641E+05
(PID.TID 0000.0001) %MON exf_apressure_sd             =   9.4442408601582E+02
(PID.TID 0000.0001) %MON exf_apressure_del2           =   3.0977039939090E+01
(PID.TID 0000.0001) %MON exf_runoff_max               =   4.6633690723924E-08
(PID.TID 0000.0001) %MON exf_runoff_min               =   0.0000000000000E+00
(PID.TID 0000.0001) %MON exf_runoff_mean              =   1.6070446344693E-09
(PID.TID 0000.0001) %MON exf_runoff_sd                =   5.4409705936606E-09
(PID.TID 0000.0001) %MON exf_runoff_del2              =   1.7602788524736E-12
(PID.TID 0000.0001) // =======================================================
(PID.TID 0000.0001) // End MONITOR EXF statistics
(PID.TID 0000.0001) // =======================================================
 cg2d: Sum(rhs),rhsMax =  -1.13113478944964E+05  3.01525987691452E-03
 cg2d: Sum(rhs),rhsMax =  -1.12266158836154E+05  3.59831269229849E-03
 cg2d: Sum(rhs),rhsMax =  -1.11407464940066E+05  4.18846839267077E-03
 cg2d: Sum(rhs),rhsMax =  -1.10537502897062E+05  4.78569279289022E-03
 cg2d: Sum(rhs),rhsMax =  -1.09656379836573E+05  5.38993346050808E-03
 cg2d: Sum(rhs),rhsMax =  -1.08764204364176E+05  6.00112305708437E-03
 cg2d: Sum(rhs),rhsMax =  -1.07861086548584E+05  6.61918647002303E-03
 cg2d: Sum(rhs),rhsMax =  -1.06947137908310E+05  7.24404903010814E-03
 cg2d: Sum(rhs),rhsMax =  -1.06022471398253E+05  7.87563817409058E-03
 cg2d: Sum(rhs),rhsMax =  -1.05087201395986E+05  8.51387928116583E-03
 cg2d: Sum(rhs),rhsMax =  -1.04141443687926E+05  9.15868549844180E-03
 cg2d: Sum(rhs),rhsMax =  -1.03185315455244E+05  9.80995678287631E-03
 cg2d: Sum(rhs),rhsMax =  -1.02218935259656E+05  1.04675835784090E-02
 cg2d: Sum(rhs),rhsMax =  -1.01242423028932E+05  1.11314514759510E-02
 cg2d: Sum(rhs),rhsMax =  -1.00255900042310E+05  1.18014406421900E-02
 cg2d: Sum(rhs),rhsMax =  -9.92594889156361E+04  1.24774255413619E-02
 cg2d: Sum(rhs),rhsMax =  -9.82533135863971E+04  1.31592778375820E-02
 cg2d: Sum(rhs),rhsMax =  -9.72374992984855E+04  1.38468650279495E-02
 cg2d: Sum(rhs),rhsMax =  -9.62121725868721E+04  1.45400495931358E-02
 cg2d: Sum(rhs),rhsMax =  -9.51774612620062E+04  1.52386872753098E-02
 cg2d: Sum(rhs),rhsMax =  -9.41334943941110E+04  1.59426278762815E-02
 cg2d: Sum(rhs),rhsMax =  -9.30804022972457E+04  1.66517157126107E-02
 cg2d: Sum(rhs),rhsMax =  -9.20183165132374E+04  1.73657902871091E-02
 cg2d: Sum(rhs),rhsMax =  -9.09473697953881E+04  1.80846877238247E-02
 cg2d: Sum(rhs),rhsMax =  -8.98676960920701E+04  1.88082422617405E-02
 cg2d: Sum(rhs),rhsMax =  -8.87794305300843E+04  1.95362872546567E-02
 cg2d: Sum(rhs),rhsMax =  -8.76827093979056E+04  2.02686529139406E-02
 cg2d: Sum(rhs),rhsMax =  -8.65776701287255E+04  2.10051666417766E-02
 cg2d: Sum(rhs),rhsMax =  -8.54644512833508E+04  2.17456558410717E-02
 cg2d: Sum(rhs),rhsMax =  -8.43431925329161E+04  2.24899451678526E-02
 cg2d: Sum(rhs),rhsMax =  -8.32140346414747E+04  2.32378575023789E-02
 cg2d: Sum(rhs),rhsMax =  -8.20771194483793E+04  2.39892092518177E-02
 cg2d: Sum(rhs),rhsMax =  -8.09325898505477E+04  2.47438074352886E-02
 cg2d: Sum(rhs),rhsMax =  -7.97805897845547E+04  2.55014535246646E-02
 cg2d: Sum(rhs),rhsMax =  -7.86212642085731E+04  2.62619425641359E-02
 cg2d: Sum(rhs),rhsMax =  -7.74547590841645E+04  2.70250627344460E-02
 cg2d: Sum(rhs),rhsMax =  -7.62812213579326E+04  2.77905977644481E-02
 cg2d: Sum(rhs),rhsMax =  -7.51007989430071E+04  2.85583268863804E-02
 cg2d: Sum(rhs),rhsMax =  -7.39136407004050E+04  2.93280247697505E-02
 cg2d: Sum(rhs),rhsMax =  -7.27198964202463E+04  3.00994629677226E-02
 cg2d: Sum(rhs),rhsMax =  -7.15197168028167E+04  3.08724103428327E-02
 cg2d: Sum(rhs),rhsMax =  -7.03132534395112E+04  3.16466322033517E-02
 cg2d: Sum(rhs),rhsMax =  -6.91006587936361E+04  3.24218918792903E-02
 cg2d: Sum(rhs),rhsMax =  -6.78820861810715E+04  3.31979522472999E-02
 cg2d: Sum(rhs),rhsMax =  -6.66576897508121E+04  3.39745784009154E-02
(PID.TID 0000.0001)      cg2d_init_res =   9.20852809021747E-01
(PID.TID 0000.0001)      cg2d_iters(min,last) =      -1     153
(PID.TID 0000.0001)      cg2d_last_res =   1.79555951653300E-11
(PID.TID 0000.0001) // =======================================================
(PID.TID 0000.0001) // Begin MONITOR dynamic field statistics
(PID.TID 0000.0001) // =======================================================
(PID.TID 0000.0001) %MON time_tsnumber                =              15811920
(PID.TID 0000.0001) %MON time_secondsf                =   1.2649536000000E+09
(PID.TID 0000.0001) %MON dynstat_eta_max              =   1.2654407863595E+00
(PID.TID 0000.0001) %MON dynstat_eta_min              =  -1.0701093224445E+00
(PID.TID 0000.0001) %MON dynstat_eta_mean             =   2.5191389747893E-01
(PID.TID 0000.0001) %MON dynstat_eta_sd               =   3.5459441216354E-01
(PID.TID 0000.0001) %MON dynstat_eta_del2             =   1.0598750411169E-06
(PID.TID 0000.0001) %MON dynstat_uvel_max             =   2.6698250420128E+00
(PID.TID 0000.0001) %MON dynstat_uvel_min             =  -2.5871907930215E+00
(PID.TID 0000.0001) %MON dynstat_uvel_mean            =   7.5966033370304E-03
(PID.TID 0000.0001) %MON dynstat_uvel_sd              =   9.3528886699773E-02
(PID.TID 0000.0001) %MON dynstat_uvel_del2            =   1.9915872026727E-06
(PID.TID 0000.0001) %MON dynstat_vvel_max             =   3.0215725618116E+00
(PID.TID 0000.0001) %MON dynstat_vvel_min             =  -2.9022885044041E+00
(PID.TID 0000.0001) %MON dynstat_vvel_mean            =  -8.7026129319981E-03
(PID.TID 0000.0001) %MON dynstat_vvel_sd              =   8.6548922385753E-02
(PID.TID 0000.0001) %MON dynstat_vvel_del2            =   1.8674645197921E-06
(PID.TID 0000.0001) %MON dynstat_wvel_max             =   3.9888061737135E-02
(PID.TID 0000.0001) %MON dynstat_wvel_min             =  -3.1031069220195E-02
(PID.TID 0000.0001) %MON dynstat_wvel_mean            =  -3.5996750983853E-05
(PID.TID 0000.0001) %MON dynstat_wvel_sd              =   1.6471559149791E-03
(PID.TID 0000.0001) %MON dynstat_wvel_del2            =   1.0066318025165E-07
(PID.TID 0000.0001) %MON dynstat_theta_max            =   2.4968842584349E+01
(PID.TID 0000.0001) %MON dynstat_theta_min            =  -2.7379844282492E+00
(PID.TID 0000.0001) %MON dynstat_theta_mean           =   5.5823349849153E+00
(PID.TID 0000.0001) %MON dynstat_theta_sd             =   4.6760012493620E+00
(PID.TID 0000.0001) %MON dynstat_theta_del2           =   7.4257755642187E-06
(PID.TID 0000.0001) %MON dynstat_salt_max             =   8.9648371114141E+01
(PID.TID 0000.0001) %MON dynstat_salt_min             =   2.0154461211732E+00
(PID.TID 0000.0001) %MON dynstat_salt_mean            =   3.5191321805345E+01
(PID.TID 0000.0001) %MON dynstat_salt_sd              =   4.5275021890752E-01
(PID.TID 0000.0001) %MON dynstat_salt_del2            =   1.4870890081707E-06
(PID.TID 0000.0001) %MON dynstat_sst_max              =   2.4950402316790E+01
(PID.TID 0000.0001) %MON dynstat_sst_min              =  -2.7379844282492E+00
(PID.TID 0000.0001) %MON dynstat_sst_mean             =   1.7741367623156E+01
(PID.TID 0000.0001) %MON dynstat_sst_sd               =   3.4113841045258E+00
(PID.TID 0000.0001) %MON dynstat_sst_del2             =   9.6599771511528E-05
(PID.TID 0000.0001) %MON dynstat_sss_max              =   8.9541651543771E+01
(PID.TID 0000.0001) %MON dynstat_sss_min              =   2.0154461211732E+00
(PID.TID 0000.0001) %MON dynstat_sss_mean             =   3.6426311531856E+01
(PID.TID 0000.0001) %MON dynstat_sss_sd               =   4.5468434401218E-01
(PID.TID 0000.0001) %MON dynstat_sss_del2             =   1.8979643468849E-05
(PID.TID 0000.0001) %MON forcing_qnet_max             =   1.2182806344031E+03
(PID.TID 0000.0001) %MON forcing_qnet_min             =  -6.6738054702049E+02
(PID.TID 0000.0001) %MON forcing_qnet_mean            =  -5.9992904477818E+01
(PID.TID 0000.0001) %MON forcing_qnet_sd              =   2.7664807376805E+02
(PID.TID 0000.0001) %MON forcing_qnet_del2            =   6.0137047331111E-03
(PID.TID 0000.0001) %MON forcing_qsw_max              =  -1.7641278039215E+01
(PID.TID 0000.0001) %MON forcing_qsw_min              =  -6.7037484100483E+02
(PID.TID 0000.0001) %MON forcing_qsw_mean             =  -3.3978261546313E+02
(PID.TID 0000.0001) %MON forcing_qsw_sd               =   1.6518048911647E+02
(PID.TID 0000.0001) %MON forcing_qsw_del2             =   2.4502709648037E-04
(PID.TID 0000.0001) %MON forcing_empmr_max            =   3.2257552812279E-04
(PID.TID 0000.0001) %MON forcing_empmr_min            =  -2.0922633138474E-03
(PID.TID 0000.0001) %MON forcing_empmr_mean           =  -8.5853267275030E-06
(PID.TID 0000.0001) %MON forcing_empmr_sd             =   1.9170291589565E-04
(PID.TID 0000.0001) %MON forcing_empmr_del2           =   1.7690431991281E-09
(PID.TID 0000.0001) %MON forcing_fu_max               =   1.0609618957130E+00
(PID.TID 0000.0001) %MON forcing_fu_min               =  -5.0664166332596E-01
(PID.TID 0000.0001) %MON forcing_fu_mean              =   1.5722753879777E-01
(PID.TID 0000.0001) %MON forcing_fu_sd                =   1.9681015831658E-01
(PID.TID 0000.0001) %MON forcing_fu_del2              =   1.1081875731281E-06
(PID.TID 0000.0001) %MON forcing_fv_max               =   8.9513437763974E-01
(PID.TID 0000.0001) %MON forcing_fv_min               =  -7.5069763159505E-01
(PID.TID 0000.0001) %MON forcing_fv_mean              =   7.9135082284044E-03
(PID.TID 0000.0001) %MON forcing_fv_sd                =   1.8752438609817E-01
(PID.TID 0000.0001) %MON forcing_fv_del2              =   9.8737851443748E-07
(PID.TID 0000.0001) %MON trAdv_CFL_u_max              =   9.0509851690796E-02
(PID.TID 0000.0001) %MON trAdv_CFL_v_max              =   1.0435079896116E-01
(PID.TID 0000.0001) %MON trAdv_CFL_w_max              =   3.5542990333260E-01
(PID.TID 0000.0001) %MON advcfl_uvel_max              =   9.0509851192201E-02
(PID.TID 0000.0001) %MON advcfl_vvel_max              =   1.0436321574440E-01
(PID.TID 0000.0001) %MON advcfl_wvel_max              =   3.4812563619517E-01
(PID.TID 0000.0001) %MON advcfl_W_hf_max              =   3.5542990333260E-01
(PID.TID 0000.0001) %MON pe_b_mean                    =   6.3154284416277E-03
(PID.TID 0000.0001) %MON ke_max                       =   4.8130040677374E+00
(PID.TID 0000.0001) %MON ke_mean                      =   8.1417987701545E-03
(PID.TID 0000.0001) %MON ke_vol                       =   4.6123795034297E+16
(PID.TID 0000.0001) %MON vort_r_min                   =  -1.1718350411584E-03
(PID.TID 0000.0001) %MON vort_r_max                   =   1.3065110737495E-03
(PID.TID 0000.0001) %MON vort_a_mean                  =   8.2145897673972E-05
(PID.TID 0000.0001) %MON vort_a_sd                    =   1.4061675976240E-05
(PID.TID 0000.0001) %MON vort_p_mean                  =   8.4437928283803E-05
(PID.TID 0000.0001) %MON vort_p_sd                    =   3.4029038126704E-05
(PID.TID 0000.0001) %MON surfExpan_theta_mean         =  -1.0167432606138E-03
(PID.TID 0000.0001) %MON surfExpan_salt_mean          =  -2.1076385282934E-03
(PID.TID 0000.0001) // =======================================================
(PID.TID 0000.0001) // End MONITOR dynamic field statistics
(PID.TID 0000.0001) // =======================================================
(PID.TID 0000.0001) // =======================================================
(PID.TID 0000.0001) // Begin OBCS MONITOR field statistics
(PID.TID 0000.0001) // =======================================================
(PID.TID 0000.0001) %MON obc_E_uVel_max               =   5.0702558382439E-01
(PID.TID 0000.0001) %MON obc_E_uVel_min               =   1.4337371765266E-01
(PID.TID 0000.0001) %MON obc_E_uVel_mean              =   3.6156817476007E-01
(PID.TID 0000.0001) %MON obc_E_uVel_sd                =   7.8058732057593E-02
(PID.TID 0000.0001) %MON obc_E_uVel_Int               =   2.4675042651741E+06
(PID.TID 0000.0001) %MON obc_N_vVel_max               =   2.0036390430309E-01
(PID.TID 0000.0001) %MON obc_N_vVel_min               =  -6.8536166735784E-01
(PID.TID 0000.0001) %MON obc_N_vVel_mean              =   5.6311100530353E-03
(PID.TID 0000.0001) %MON obc_N_vVel_sd                =   3.8388844297913E-02
(PID.TID 0000.0001) %MON obc_N_vVel_Int               =   8.0353939746855E+07
(PID.TID 0000.0001) %MON obc_S_vVel_max               =   1.1966672049631E+00
(PID.TID 0000.0001) %MON obc_S_vVel_min               =  -1.6265980443843E-01
(PID.TID 0000.0001) %MON obc_S_vVel_mean              =  -1.8905088646287E-02
(PID.TID 0000.0001) %MON obc_S_vVel_sd                =   2.7561923376964E-02
(PID.TID 0000.0001) %MON obc_S_vVel_Int               =  -5.7486289238496E+08
(PID.TID 0000.0001) %MON obc_E_theta_max              =   1.5981519699097E+01
(PID.TID 0000.0001) %MON obc_E_theta_min              =   1.3104037284851E+01
(PID.TID 0000.0001) %MON obc_E_theta_mean             =   1.4974089986960E+01
(PID.TID 0000.0001) %MON obc_E_theta_sd               =   6.0075505804650E-01
(PID.TID 0000.0001) %MON obc_N_theta_max              =   1.5721092224121E+01
(PID.TID 0000.0001) %MON obc_N_theta_min              =   9.7373789548874E-01
(PID.TID 0000.0001) %MON obc_N_theta_mean             =   5.3443110148828E+00
(PID.TID 0000.0001) %MON obc_N_theta_sd               =   3.5834807335781E+00
(PID.TID 0000.0001) %MON obc_S_theta_max              =   2.4979528427124E+01
(PID.TID 0000.0001) %MON obc_S_theta_min              =   1.5124862194061E+00
(PID.TID 0000.0001) %MON obc_S_theta_mean             =   5.4273114502690E+00
(PID.TID 0000.0001) %MON obc_S_theta_sd               =   5.1694562801555E+00
(PID.TID 0000.0001) %MON obc_E_salt_max               =   3.8703720092773E+01
(PID.TID 0000.0001) %MON obc_E_salt_min               =   3.6289142608643E+01
(PID.TID 0000.0001) %MON obc_E_salt_mean              =   3.6643778075730E+01
(PID.TID 0000.0001) %MON obc_E_salt_sd                =   5.5037722650442E-01
(PID.TID 0000.0001) %MON obc_N_salt_max               =   3.6066974639893E+01
(PID.TID 0000.0001) %MON obc_N_salt_min               =   3.2878395080566E+01
(PID.TID 0000.0001) %MON obc_N_salt_mean              =   3.5117165924185E+01
(PID.TID 0000.0001) %MON obc_N_salt_sd                =   3.1541903364831E-01
(PID.TID 0000.0001) %MON obc_S_salt_max               =   3.7600940704346E+01
(PID.TID 0000.0001) %MON obc_S_salt_min               =   3.4853485107422E+01
(PID.TID 0000.0001) %MON obc_S_salt_mean              =   3.5185630803177E+01
(PID.TID 0000.0001) %MON obc_S_salt_sd                =   4.9502018312198E-01
(PID.TID 0000.0001) // =======================================================
(PID.TID 0000.0001) // End OBCS MONITOR field statistics
(PID.TID 0000.0001) // =======================================================
(PID.TID 0000.0001) // =======================================================
(PID.TID 0000.0001) // Begin MONITOR ptracer field statistics
(PID.TID 0000.0001) // =======================================================
(PID.TID 0000.0001) %MON trcstat_ptracer01_max        =   0.0000000000000E+00
(PID.TID 0000.0001) %MON trcstat_ptracer01_min        =   0.0000000000000E+00
(PID.TID 0000.0001) %MON trcstat_ptracer01_mean       =   0.0000000000000E+00
(PID.TID 0000.0001) %MON trcstat_ptracer01_sd         =   0.0000000000000E+00
(PID.TID 0000.0001) %MON trcstat_ptracer01_del2       =   0.0000000000000E+00
(PID.TID 0000.0001) %MON trcstat_ptracer02_max        =   0.0000000000000E+00
(PID.TID 0000.0001) %MON trcstat_ptracer02_min        =   0.0000000000000E+00
(PID.TID 0000.0001) %MON trcstat_ptracer02_mean       =   0.0000000000000E+00
(PID.TID 0000.0001) %MON trcstat_ptracer02_sd         =   0.0000000000000E+00
(PID.TID 0000.0001) %MON trcstat_ptracer02_del2       =   0.0000000000000E+00
(PID.TID 0000.0001) // =======================================================
(PID.TID 0000.0001) // End MONITOR ptracer field statistics
(PID.TID 0000.0001) // =======================================================
(PID.TID 0000.0001) // =======================================================
(PID.TID 0000.0001) // Begin MONITOR EXF statistics
(PID.TID 0000.0001) // =======================================================
(PID.TID 0000.0001) %MON exf_tsnumber                 =              15811920
(PID.TID 0000.0001) %MON exf_time_sec                 =   1.2649536000000E+09
(PID.TID 0000.0001) %MON exf_ustress_max              =   1.0642525036749E+00
(PID.TID 0000.0001) %MON exf_ustress_min              =  -5.1109744668764E-01
(PID.TID 0000.0001) %MON exf_ustress_mean             =   1.5733641022364E-01
(PID.TID 0000.0001) %MON exf_ustress_sd               =   1.9693851141704E-01
(PID.TID 0000.0001) %MON exf_ustress_del2             =   1.2108062844340E-06
(PID.TID 0000.0001) %MON exf_vstress_max              =   9.0578437139009E-01
(PID.TID 0000.0001) %MON exf_vstress_min              =  -7.5282205192875E-01
(PID.TID 0000.0001) %MON exf_vstress_mean             =   7.8488967543081E-03
(PID.TID 0000.0001) %MON exf_vstress_sd               =   1.8780478287308E-01
(PID.TID 0000.0001) %MON exf_vstress_del2             =   1.0957812186122E-06
(PID.TID 0000.0001) %MON exf_hflux_max                =   1.1932261883240E+03
(PID.TID 0000.0001) %MON exf_hflux_min                =  -6.6370848082636E+02
(PID.TID 0000.0001) %MON exf_hflux_mean               =  -5.9981696348489E+01
(PID.TID 0000.0001) %MON exf_hflux_sd                 =   2.7444226635897E+02
(PID.TID 0000.0001) %MON exf_hflux_del2               =   8.5638740926660E-02
(PID.TID 0000.0001) %MON exf_sflux_max                =   3.2258538192257E-07
(PID.TID 0000.0001) %MON exf_sflux_min                =  -2.1053966933908E-06
(PID.TID 0000.0001) %MON exf_sflux_mean               =  -8.5795390685734E-09
(PID.TID 0000.0001) %MON exf_sflux_sd                 =   1.9188727311496E-07
(PID.TID 0000.0001) %MON exf_sflux_del2               =   5.9828083326196E-11
(PID.TID 0000.0001) %MON exf_uwind_max                =   2.0762221482901E+01
(PID.TID 0000.0001) %MON exf_uwind_min                =  -1.5958827543164E+01
(PID.TID 0000.0001) %MON exf_uwind_mean               =   6.5681539958526E+00
(PID.TID 0000.0001) %MON exf_uwind_sd                 =   6.2039874667632E+00
(PID.TID 0000.0001) %MON exf_uwind_del2               =   2.7982836011165E-03
(PID.TID 0000.0001) %MON exf_vwind_max                =   1.9656125417983E+01
(PID.TID 0000.0001) %MON exf_vwind_min                =  -1.4274384421648E+01
(PID.TID 0000.0001) %MON exf_vwind_mean               =   6.6897871048676E-01
(PID.TID 0000.0001) %MON exf_vwind_sd                 =   7.4696638356477E+00
(PID.TID 0000.0001) %MON exf_vwind_del2               =   2.3046983632453E-03
(PID.TID 0000.0001) %MON exf_wspeed_max               =   2.2562054956247E+01
(PID.TID 0000.0001) %MON exf_wspeed_min               =   4.8964996691439E-03
(PID.TID 0000.0001) %MON exf_wspeed_mean              =   1.0915707851013E+01
(PID.TID 0000.0001) %MON exf_wspeed_sd                =   4.3267585840901E+00
(PID.TID 0000.0001) %MON exf_wspeed_del2              =   3.6249315211974E-03
(PID.TID 0000.0001) %MON exf_atemp_max                =   2.9692328370805E+02
(PID.TID 0000.0001) %MON exf_atemp_min                =   2.6776577311546E+02
(PID.TID 0000.0001) %MON exf_atemp_mean               =   2.8902952766397E+02
(PID.TID 0000.0001) %MON exf_atemp_sd                 =   5.0915624921595E+00
(PID.TID 0000.0001) %MON exf_atemp_del2               =   5.0560633049500E-03
(PID.TID 0000.0001) %MON exf_aqh_max                  =   1.5106309582553E-02
(PID.TID 0000.0001) %MON exf_aqh_min                  =   1.1981309407673E-03
(PID.TID 0000.0001) %MON exf_aqh_mean                 =   8.7141205116071E-03
(PID.TID 0000.0001) %MON exf_aqh_sd                   =   2.8666243741278E-03
(PID.TID 0000.0001) %MON exf_aqh_del2                 =   2.7935219331824E-06
(PID.TID 0000.0001) %MON exf_lwflux_max               =   1.8294602710430E+02
(PID.TID 0000.0001) %MON exf_lwflux_min               =  -2.2347543434703E+01
(PID.TID 0000.0001) %MON exf_lwflux_mean              =   6.2595149644164E+01
(PID.TID 0000.0001) %MON exf_lwflux_sd                =   3.0693635064903E+01
(PID.TID 0000.0001) %MON exf_lwflux_del2              =   2.1211415670122E-02
(PID.TID 0000.0001) %MON exf_evap_max                 =   3.5328436338992E-07
(PID.TID 0000.0001) %MON exf_evap_min                 =  -8.9701215737403E-08
(PID.TID 0000.0001) %MON exf_evap_mean                =   7.1361344284610E-08
(PID.TID 0000.0001) %MON exf_evap_sd                  =   6.1100646820500E-08
(PID.TID 0000.0001) %MON exf_evap_del2                =   2.8639138312923E-11
(PID.TID 0000.0001) %MON exf_precip_max               =   2.1520434858275E-06
(PID.TID 0000.0001) %MON exf_precip_min               =   0.0000000000000E+00
(PID.TID 0000.0001) %MON exf_precip_mean              =   7.8333838718715E-08
(PID.TID 0000.0001) %MON exf_precip_sd                =   1.7928776234360E-07
(PID.TID 0000.0001) %MON exf_precip_del2              =   6.1208241886825E-11
(PID.TID 0000.0001) %MON exf_swflux_max               =  -1.7380254966483E+01
(PID.TID 0000.0001) %MON exf_swflux_min               =  -6.6992345248512E+02
(PID.TID 0000.0001) %MON exf_swflux_mean              =  -3.3907412975484E+02
(PID.TID 0000.0001) %MON exf_swflux_sd                =   1.6536347201420E+02
(PID.TID 0000.0001) %MON exf_swflux_del2              =   1.1382665880021E-01
(PID.TID 0000.0001) %MON exf_swdown_max               =   7.3191875069090E+02
(PID.TID 0000.0001) %MON exf_swdown_min               =   1.9244188556777E+01
(PID.TID 0000.0001) %MON exf_swdown_mean              =   3.7336933799678E+02
(PID.TID 0000.0001) %MON exf_swdown_sd                =   1.8106614195799E+02
(PID.TID 0000.0001) %MON exf_swdown_del2              =   1.2524692147238E-01
(PID.TID 0000.0001) %MON exf_lwdown_max               =   4.1550148410745E+02
(PID.TID 0000.0001) %MON exf_lwdown_min               =   1.8701938210974E+02
(PID.TID 0000.0001) %MON exf_lwdown_mean              =   3.4178255906844E+02
(PID.TID 0000.0001) %MON exf_lwdown_sd                =   3.4909022772142E+01
(PID.TID 0000.0001) %MON exf_lwdown_del2              =   1.0488530848104E-01
(PID.TID 0000.0001) %MON exf_apressure_max            =   1.0273054472886E+05
(PID.TID 0000.0001) %MON exf_apressure_min            =   9.8044714492386E+04
(PID.TID 0000.0001) %MON exf_apressure_mean           =   1.0132694891521E+05
(PID.TID 0000.0001) %MON exf_apressure_sd             =   9.5569356364004E+02
(PID.TID 0000.0001) %MON exf_apressure_del2           =   3.0960082996170E+01
(PID.TID 0000.0001) %MON exf_runoff_max               =   4.6633690723924E-08
(PID.TID 0000.0001) %MON exf_runoff_min               =   0.0000000000000E+00
(PID.TID 0000.0001) %MON exf_runoff_mean              =   1.6070446344693E-09
(PID.TID 0000.0001) %MON exf_runoff_sd                =   5.4409705936606E-09
(PID.TID 0000.0001) %MON exf_runoff_del2              =   1.7602788524736E-12
(PID.TID 0000.0001) // =======================================================
(PID.TID 0000.0001) // End MONITOR EXF statistics
(PID.TID 0000.0001) // =======================================================
 cg2d: Sum(rhs),rhsMax =  -6.54276244653868E+04  3.47515391608502E-02
 cg2d: Sum(rhs),rhsMax =  -6.41920460811324E+04  3.55285994139079E-02
 cg2d: Sum(rhs),rhsMax =  -6.29511111283649E+04  3.63055242927985E-02
 cg2d: Sum(rhs),rhsMax =  -6.17049768914268E+04  3.70820729751273E-02
 cg2d: Sum(rhs),rhsMax =  -6.04538013886044E+04  3.78579971417324E-02
 cg2d: Sum(rhs),rhsMax =  -5.91977433519437E+04  3.86330393318577E-02
 cg2d: Sum(rhs),rhsMax =  -5.79369622069532E+04  3.94069358125134E-02
 cg2d: Sum(rhs),rhsMax =  -5.66716180521842E+04  4.01794201621285E-02
 cg2d: Sum(rhs),rhsMax =  -5.54018716387229E+04  4.09502338656372E-02
 cg2d: Sum(rhs),rhsMax =  -5.41278843495599E+04  4.17191168567740E-02
 cg2d: Sum(rhs),rhsMax =  -5.28498181788702E+04  4.24858052793187E-02
 cg2d: Sum(rhs),rhsMax =  -5.15678357111842E+04  4.32500358892351E-02
 cg2d: Sum(rhs),rhsMax =  -5.02821001004772E+04  4.40115549435447E-02
 cg2d: Sum(rhs),rhsMax =  -4.89927750491427E+04  4.47701249130548E-02
 cg2d: Sum(rhs),rhsMax =  -4.77000247868985E+04  4.55255259435715E-02
 cg2d: Sum(rhs),rhsMax =  -4.64040140495875E+04  4.62775550399967E-02
 cg2d: Sum(rhs),rhsMax =  -4.51049080579015E+04  4.70260237546646E-02
 cg2d: Sum(rhs),rhsMax =  -4.38028724960137E+04  4.77707521578718E-02
 cg2d: Sum(rhs),rhsMax =  -4.24980734901500E+04  4.85115619807389E-02
 cg2d: Sum(rhs),rhsMax =  -4.11906775870534E+04  4.92482679263334E-02
 cg2d: Sum(rhs),rhsMax =  -3.98808517324092E+04  4.99806696960035E-02
 cg2d: Sum(rhs),rhsMax =  -3.85687632491676E+04  5.07085466926297E-02
 cg2d: Sum(rhs),rhsMax =  -3.72545798158223E+04  5.14316574346887E-02
 cg2d: Sum(rhs),rhsMax =  -3.59384694445996E+04  5.21497369028003E-02
 cg2d: Sum(rhs),rhsMax =  -3.46206004596174E+04  5.28624946074916E-02
 cg2d: Sum(rhs),rhsMax =  -3.33011414749439E+04  5.35696237307803E-02
 cg2d: Sum(rhs),rhsMax =  -3.19802613726410E+04  5.42708069407608E-02
 cg2d: Sum(rhs),rhsMax =  -3.06581292807206E+04  5.49657175602152E-02
 cg2d: Sum(rhs),rhsMax =  -2.93349145510750E+04  5.56540193338327E-02
 cg2d: Sum(rhs),rhsMax =  -2.80107867373355E+04  5.63353626746782E-02
 cg2d: Sum(rhs),rhsMax =  -2.66859155727191E+04  5.70093928332782E-02
 cg2d: Sum(rhs),rhsMax =  -2.53604709477933E+04  5.76757506729299E-02
 cg2d: Sum(rhs),rhsMax =  -2.40346228882409E+04  5.83340763956373E-02
 cg2d: Sum(rhs),rhsMax =  -2.27085415325615E+04  5.89840178127433E-02
 cg2d: Sum(rhs),rhsMax =  -2.13823971097591E+04  5.96252382346751E-02
 cg2d: Sum(rhs),rhsMax =  -2.00563599169825E+04  6.02574177359360E-02
 cg2d: Sum(rhs),rhsMax =  -1.87306002971646E+04  6.08802485655629E-02
 cg2d: Sum(rhs),rhsMax =  -1.74052886166067E+04  6.14934314331899E-02
 cg2d: Sum(rhs),rhsMax =  -1.60805952425748E+04  6.20966702969882E-02
 cg2d: Sum(rhs),rhsMax =  -1.47566905208557E+04  6.26896758541555E-02
 cg2d: Sum(rhs),rhsMax =  -1.34337447533131E+04  6.32721714043991E-02
 cg2d: Sum(rhs),rhsMax =  -1.21119281754215E+04  6.38438978210466E-02
 cg2d: Sum(rhs),rhsMax =  -1.07914109338127E+04  6.44046024275941E-02
 cg2d: Sum(rhs),rhsMax =  -9.47236306378671E+03  6.49540695857692E-02
 cg2d: Sum(rhs),rhsMax =  -8.15495446685739E+03  6.54921153806337E-02
(PID.TID 0000.0001)      cg2d_init_res =   1.05482510004716E+00
(PID.TID 0000.0001)      cg2d_iters(min,last) =      -1     154
(PID.TID 0000.0001)      cg2d_last_res =   1.75717173702103E-11
(PID.TID 0000.0001) // =======================================================
(PID.TID 0000.0001) // Begin MONITOR dynamic field statistics
(PID.TID 0000.0001) // =======================================================
(PID.TID 0000.0001) %MON time_tsnumber                =              15811965
(PID.TID 0000.0001) %MON time_secondsf                =   1.2649572000000E+09
(PID.TID 0000.0001) %MON dynstat_eta_max              =   1.0155795552849E+00
(PID.TID 0000.0001) %MON dynstat_eta_min              =  -1.2509503164487E+00
(PID.TID 0000.0001) %MON dynstat_eta_mean             =   3.0819345392693E-02
(PID.TID 0000.0001) %MON dynstat_eta_sd               =   3.2594974223168E-01
(PID.TID 0000.0001) %MON dynstat_eta_del2             =   1.1191890354332E-06
(PID.TID 0000.0001) %MON dynstat_uvel_max             =   2.6720600987565E+00
(PID.TID 0000.0001) %MON dynstat_uvel_min             =  -2.5726919769370E+00
(PID.TID 0000.0001) %MON dynstat_uvel_mean            =  -3.8134430249917E-04
(PID.TID 0000.0001) %MON dynstat_uvel_sd              =   9.3831744337421E-02
(PID.TID 0000.0001) %MON dynstat_uvel_del2            =   2.0027569588160E-06
(PID.TID 0000.0001) %MON dynstat_vvel_max             =   3.1686964104845E+00
(PID.TID 0000.0001) %MON dynstat_vvel_min             =  -2.9337592521718E+00
(PID.TID 0000.0001) %MON dynstat_vvel_mean            =  -1.3524241657563E-02
(PID.TID 0000.0001) %MON dynstat_vvel_sd              =   8.6715164391440E-02
(PID.TID 0000.0001) %MON dynstat_vvel_del2            =   1.8824643834169E-06
(PID.TID 0000.0001) %MON dynstat_wvel_max             =   3.8601026738254E-02
(PID.TID 0000.0001) %MON dynstat_wvel_min             =  -3.7431685586821E-02
(PID.TID 0000.0001) %MON dynstat_wvel_mean            =  -3.9197450471229E-05
(PID.TID 0000.0001) %MON dynstat_wvel_sd              =   1.6508650042960E-03
(PID.TID 0000.0001) %MON dynstat_wvel_del2            =   1.0033116531854E-07
(PID.TID 0000.0001) %MON dynstat_theta_max            =   2.4970858124466E+01
(PID.TID 0000.0001) %MON dynstat_theta_min            =  -2.6868062128480E+00
(PID.TID 0000.0001) %MON dynstat_theta_mean           =   5.5829912065491E+00
(PID.TID 0000.0001) %MON dynstat_theta_sd             =   4.6767683824322E+00
(PID.TID 0000.0001) %MON dynstat_theta_del2           =   7.4143041995719E-06
(PID.TID 0000.0001) %MON dynstat_salt_max             =   8.9642841317913E+01
(PID.TID 0000.0001) %MON dynstat_salt_min             =   2.0154802836555E+00
(PID.TID 0000.0001) %MON dynstat_salt_mean            =   3.5191386825149E+01
(PID.TID 0000.0001) %MON dynstat_salt_sd              =   4.5283725306424E-01
(PID.TID 0000.0001) %MON dynstat_salt_del2            =   1.4869335713038E-06
(PID.TID 0000.0001) %MON dynstat_sst_max              =   2.4954166267555E+01
(PID.TID 0000.0001) %MON dynstat_sst_min              =  -2.6868062128480E+00
(PID.TID 0000.0001) %MON dynstat_sst_mean             =   1.7743652412405E+01
(PID.TID 0000.0001) %MON dynstat_sst_sd               =   3.4147947111299E+00
(PID.TID 0000.0001) %MON dynstat_sst_del2             =   9.6079923938637E-05
(PID.TID 0000.0001) %MON dynstat_sss_max              =   8.9528148024058E+01
(PID.TID 0000.0001) %MON dynstat_sss_min              =   2.0154802836555E+00
(PID.TID 0000.0001) %MON dynstat_sss_mean             =   3.6426312475860E+01
(PID.TID 0000.0001) %MON dynstat_sss_sd               =   4.5484730990498E-01
(PID.TID 0000.0001) %MON dynstat_sss_del2             =   1.8789687059727E-05
(PID.TID 0000.0001) %MON forcing_qnet_max             =   1.1257726557327E+03
(PID.TID 0000.0001) %MON forcing_qnet_min             =  -6.4130956475007E+02
(PID.TID 0000.0001) %MON forcing_qnet_mean            =  -1.0281631556485E+01
(PID.TID 0000.0001) %MON forcing_qnet_sd              =   2.6004599418727E+02
(PID.TID 0000.0001) %MON forcing_qnet_del2            =   6.0990079236335E-03
(PID.TID 0000.0001) %MON forcing_qsw_max              =  -9.6252614624970E+00
(PID.TID 0000.0001) %MON forcing_qsw_min              =  -6.8893474767594E+02
(PID.TID 0000.0001) %MON forcing_qsw_mean             =  -2.9451421169450E+02
(PID.TID 0000.0001) %MON forcing_qsw_sd               =   1.7102897648915E+02
(PID.TID 0000.0001) %MON forcing_qsw_del2             =   2.1834494746069E-04
(PID.TID 0000.0001) %MON forcing_empmr_max            =   3.0867436323725E-04
(PID.TID 0000.0001) %MON forcing_empmr_min            =  -2.2633276080943E-03
(PID.TID 0000.0001) %MON forcing_empmr_mean           =  -9.0580068632802E-06
(PID.TID 0000.0001) %MON forcing_empmr_sd             =   2.0013184922770E-04
(PID.TID 0000.0001) %MON forcing_empmr_del2           =   1.7408223395798E-09
(PID.TID 0000.0001) %MON forcing_fu_max               =   1.0744886455129E+00
(PID.TID 0000.0001) %MON forcing_fu_min               =  -4.7942386988936E-01
(PID.TID 0000.0001) %MON forcing_fu_mean              =   1.6074431896821E-01
(PID.TID 0000.0001) %MON forcing_fu_sd                =   1.9580772418003E-01
(PID.TID 0000.0001) %MON forcing_fu_del2              =   1.1234215623579E-06
(PID.TID 0000.0001) %MON forcing_fv_max               =   8.8272019981938E-01
(PID.TID 0000.0001) %MON forcing_fv_min               =  -7.5329683437771E-01
(PID.TID 0000.0001) %MON forcing_fv_mean              =   4.7869472956190E-03
(PID.TID 0000.0001) %MON forcing_fv_sd                =   1.9609683410987E-01
(PID.TID 0000.0001) %MON forcing_fv_del2              =   1.0214432520518E-06
(PID.TID 0000.0001) %MON trAdv_CFL_u_max              =   9.4322593230455E-02
(PID.TID 0000.0001) %MON trAdv_CFL_v_max              =   1.0943175956733E-01
(PID.TID 0000.0001) %MON trAdv_CFL_w_max              =   3.4809713081054E-01
(PID.TID 0000.0001) %MON advcfl_uvel_max              =   9.4322592710859E-02
(PID.TID 0000.0001) %MON advcfl_vvel_max              =   1.0944478093806E-01
(PID.TID 0000.0001) %MON advcfl_wvel_max              =   3.4095508441568E-01
(PID.TID 0000.0001) %MON advcfl_W_hf_max              =   3.4809713081054E-01
(PID.TID 0000.0001) %MON pe_b_mean                    =   8.5058067647261E-04
(PID.TID 0000.0001) %MON ke_max                       =   5.0389105745099E+00
(PID.TID 0000.0001) %MON ke_mean                      =   8.2089576509778E-03
(PID.TID 0000.0001) %MON ke_vol                       =   4.6123795034297E+16
(PID.TID 0000.0001) %MON vort_r_min                   =  -1.9738255481465E-03
(PID.TID 0000.0001) %MON vort_r_max                   =   1.6933723031020E-03
(PID.TID 0000.0001) %MON vort_a_mean                  =   8.2145895752008E-05
(PID.TID 0000.0001) %MON vort_a_sd                    =   1.4085125708269E-05
(PID.TID 0000.0001) %MON vort_p_mean                  =   8.4437926308212E-05
(PID.TID 0000.0001) %MON vort_p_sd                    =   3.4076215055197E-05
(PID.TID 0000.0001) %MON surfExpan_theta_mean         =  -1.0630718454228E-03
(PID.TID 0000.0001) %MON surfExpan_salt_mean          =  -2.2658728284586E-03
(PID.TID 0000.0001) // =======================================================
(PID.TID 0000.0001) // End MONITOR dynamic field statistics
(PID.TID 0000.0001) // =======================================================
(PID.TID 0000.0001) // =======================================================
(PID.TID 0000.0001) // Begin OBCS MONITOR field statistics
(PID.TID 0000.0001) // =======================================================
(PID.TID 0000.0001) %MON obc_E_uVel_max               =   6.0703841754905E-01
(PID.TID 0000.0001) %MON obc_E_uVel_min               =   2.1660158256075E-01
(PID.TID 0000.0001) %MON obc_E_uVel_mean              =   4.3417277328194E-01
(PID.TID 0000.0001) %MON obc_E_uVel_sd                =   8.3097291103335E-02
(PID.TID 0000.0001) %MON obc_E_uVel_Int               =   2.9629907848128E+06
(PID.TID 0000.0001) %MON obc_N_vVel_max               =   1.9748347811794E-01
(PID.TID 0000.0001) %MON obc_N_vVel_min               =  -9.2413346802237E-01
(PID.TID 0000.0001) %MON obc_N_vVel_mean              =   4.3476750998115E-04
(PID.TID 0000.0001) %MON obc_N_vVel_sd                =   3.8686108470078E-02
(PID.TID 0000.0001) %MON obc_N_vVel_Int               =   6.2039778963446E+06
(PID.TID 0000.0001) %MON obc_S_vVel_max               =   1.2061099382626E+00
(PID.TID 0000.0001) %MON obc_S_vVel_min               =  -1.7160427666836E-01
(PID.TID 0000.0001) %MON obc_S_vVel_mean              =  -2.2970354345767E-02
(PID.TID 0000.0001) %MON obc_S_vVel_sd                =   2.9005582242468E-02
(PID.TID 0000.0001) %MON obc_S_vVel_Int               =  -6.9847883738479E+08
(PID.TID 0000.0001) %MON obc_E_theta_max              =   1.5981519699097E+01
(PID.TID 0000.0001) %MON obc_E_theta_min              =   1.3104037284851E+01
(PID.TID 0000.0001) %MON obc_E_theta_mean             =   1.4974089986960E+01
(PID.TID 0000.0001) %MON obc_E_theta_sd               =   6.0075505804650E-01
(PID.TID 0000.0001) %MON obc_N_theta_max              =   1.5721092224121E+01
(PID.TID 0000.0001) %MON obc_N_theta_min              =   9.7373789548874E-01
(PID.TID 0000.0001) %MON obc_N_theta_mean             =   5.3443110148828E+00
(PID.TID 0000.0001) %MON obc_N_theta_sd               =   3.5834807335781E+00
(PID.TID 0000.0001) %MON obc_S_theta_max              =   2.4979528427124E+01
(PID.TID 0000.0001) %MON obc_S_theta_min              =   1.5124862194061E+00
(PID.TID 0000.0001) %MON obc_S_theta_mean             =   5.4273114502690E+00
(PID.TID 0000.0001) %MON obc_S_theta_sd               =   5.1694562801555E+00
(PID.TID 0000.0001) %MON obc_E_salt_max               =   3.8703720092773E+01
(PID.TID 0000.0001) %MON obc_E_salt_min               =   3.6289142608643E+01
(PID.TID 0000.0001) %MON obc_E_salt_mean              =   3.6643778075730E+01
(PID.TID 0000.0001) %MON obc_E_salt_sd                =   5.5037722650442E-01
(PID.TID 0000.0001) %MON obc_N_salt_max               =   3.6066974639893E+01
(PID.TID 0000.0001) %MON obc_N_salt_min               =   3.2878395080566E+01
(PID.TID 0000.0001) %MON obc_N_salt_mean              =   3.5117165924185E+01
(PID.TID 0000.0001) %MON obc_N_salt_sd                =   3.1541903364831E-01
(PID.TID 0000.0001) %MON obc_S_salt_max               =   3.7600940704346E+01
(PID.TID 0000.0001) %MON obc_S_salt_min               =   3.4853485107422E+01
(PID.TID 0000.0001) %MON obc_S_salt_mean              =   3.5185630803177E+01
(PID.TID 0000.0001) %MON obc_S_salt_sd                =   4.9502018312198E-01
(PID.TID 0000.0001) // =======================================================
(PID.TID 0000.0001) // End OBCS MONITOR field statistics
(PID.TID 0000.0001) // =======================================================
(PID.TID 0000.0001) // =======================================================
(PID.TID 0000.0001) // Begin MONITOR ptracer field statistics
(PID.TID 0000.0001) // =======================================================
(PID.TID 0000.0001) %MON trcstat_ptracer01_max        =   0.0000000000000E+00
(PID.TID 0000.0001) %MON trcstat_ptracer01_min        =   0.0000000000000E+00
(PID.TID 0000.0001) %MON trcstat_ptracer01_mean       =   0.0000000000000E+00
(PID.TID 0000.0001) %MON trcstat_ptracer01_sd         =   0.0000000000000E+00
(PID.TID 0000.0001) %MON trcstat_ptracer01_del2       =   0.0000000000000E+00
(PID.TID 0000.0001) %MON trcstat_ptracer02_max        =   0.0000000000000E+00
(PID.TID 0000.0001) %MON trcstat_ptracer02_min        =   0.0000000000000E+00
(PID.TID 0000.0001) %MON trcstat_ptracer02_mean       =   0.0000000000000E+00
(PID.TID 0000.0001) %MON trcstat_ptracer02_sd         =   0.0000000000000E+00
(PID.TID 0000.0001) %MON trcstat_ptracer02_del2       =   0.0000000000000E+00
(PID.TID 0000.0001) // =======================================================
(PID.TID 0000.0001) // End MONITOR ptracer field statistics
(PID.TID 0000.0001) // =======================================================
(PID.TID 0000.0001) // =======================================================
(PID.TID 0000.0001) // Begin MONITOR EXF statistics
(PID.TID 0000.0001) // =======================================================
(PID.TID 0000.0001) %MON exf_tsnumber                 =              15811965
(PID.TID 0000.0001) %MON exf_time_sec                 =   1.2649572000000E+09
(PID.TID 0000.0001) %MON exf_ustress_max              =   1.0756346292083E+00
(PID.TID 0000.0001) %MON exf_ustress_min              =  -4.8224964516051E-01
(PID.TID 0000.0001) %MON exf_ustress_mean             =   1.6084483377234E-01
(PID.TID 0000.0001) %MON exf_ustress_sd               =   1.9597492191447E-01
(PID.TID 0000.0001) %MON exf_ustress_del2             =   1.2286959515385E-06
(PID.TID 0000.0001) %MON exf_vstress_max              =   8.9388627904935E-01
(PID.TID 0000.0001) %MON exf_vstress_min              =  -7.5357534687043E-01
(PID.TID 0000.0001) %MON exf_vstress_mean             =   4.7538322439718E-03
(PID.TID 0000.0001) %MON exf_vstress_sd               =   1.9644987841348E-01
(PID.TID 0000.0001) %MON exf_vstress_del2             =   1.1320154081404E-06
(PID.TID 0000.0001) %MON exf_hflux_max                =   1.1018779302801E+03
(PID.TID 0000.0001) %MON exf_hflux_min                =  -6.3653641727147E+02
(PID.TID 0000.0001) %MON exf_hflux_mean               =  -9.6137779566457E+00
(PID.TID 0000.0001) %MON exf_hflux_sd                 =   2.5742133495270E+02
(PID.TID 0000.0001) %MON exf_hflux_del2               =   7.8979895809736E-02
(PID.TID 0000.0001) %MON exf_sflux_max                =   3.0888604002535E-07
(PID.TID 0000.0001) %MON exf_sflux_min                =  -2.2579621269687E-06
(PID.TID 0000.0001) %MON exf_sflux_mean               =  -9.0574296528777E-09
(PID.TID 0000.0001) %MON exf_sflux_sd                 =   2.0036344252126E-07
(PID.TID 0000.0001) %MON exf_sflux_del2               =   6.2545702884202E-11
(PID.TID 0000.0001) %MON exf_uwind_max                =   2.0922357707558E+01
(PID.TID 0000.0001) %MON exf_uwind_min                =  -1.5559993146402E+01
(PID.TID 0000.0001) %MON exf_uwind_mean               =   6.6948652593278E+00
(PID.TID 0000.0001) %MON exf_uwind_sd                 =   6.1251057492667E+00
(PID.TID 0000.0001) %MON exf_uwind_del2               =   2.8085528652664E-03
(PID.TID 0000.0001) %MON exf_vwind_max                =   1.9605367113226E+01
(PID.TID 0000.0001) %MON exf_vwind_min                =  -1.4771244679006E+01
(PID.TID 0000.0001) %MON exf_vwind_mean               =   4.8996655519741E-01
(PID.TID 0000.0001) %MON exf_vwind_sd                 =   7.6408273884889E+00
(PID.TID 0000.0001) %MON exf_vwind_del2               =   2.3536762512880E-03
(PID.TID 0000.0001) %MON exf_wspeed_max               =   2.2779074349776E+01
(PID.TID 0000.0001) %MON exf_wspeed_min               =   4.3354782518166E-03
(PID.TID 0000.0001) %MON exf_wspeed_mean              =   1.1068971573000E+01
(PID.TID 0000.0001) %MON exf_wspeed_sd                =   4.2939864930240E+00
(PID.TID 0000.0001) %MON exf_wspeed_del2              =   3.6641222379963E-03
(PID.TID 0000.0001) %MON exf_atemp_max                =   2.9701889718880E+02
(PID.TID 0000.0001) %MON exf_atemp_min                =   2.6827909549984E+02
(PID.TID 0000.0001) %MON exf_atemp_mean               =   2.8902964096182E+02
(PID.TID 0000.0001) %MON exf_atemp_sd                 =   5.1006868820168E+00
(PID.TID 0000.0001) %MON exf_atemp_del2               =   5.0570875695442E-03
(PID.TID 0000.0001) %MON exf_aqh_max                  =   1.5132239991167E-02
(PID.TID 0000.0001) %MON exf_aqh_min                  =   1.1735230728290E-03
(PID.TID 0000.0001) %MON exf_aqh_mean                 =   8.7225477971591E-03
(PID.TID 0000.0001) %MON exf_aqh_sd                   =   2.8497423607049E-03
(PID.TID 0000.0001) %MON exf_aqh_del2                 =   2.7944633206765E-06
(PID.TID 0000.0001) %MON exf_lwflux_max               =   1.8250584233904E+02
(PID.TID 0000.0001) %MON exf_lwflux_min               =  -1.8978168470572E+01
(PID.TID 0000.0001) %MON exf_lwflux_mean              =   6.2865134893734E+01
(PID.TID 0000.0001) %MON exf_lwflux_sd                =   3.1284988366201E+01
(PID.TID 0000.0001) %MON exf_lwflux_del2              =   2.1374650193558E-02
(PID.TID 0000.0001) %MON exf_evap_max                 =   3.6601815388744E-07
(PID.TID 0000.0001) %MON exf_evap_min                 =  -7.8741528070408E-08
(PID.TID 0000.0001) %MON exf_evap_mean                =   7.2688257159701E-08
(PID.TID 0000.0001) %MON exf_evap_sd                  =   6.1822718098992E-08
(PID.TID 0000.0001) %MON exf_evap_del2                =   2.9095672632116E-11
(PID.TID 0000.0001) %MON exf_precip_max               =   2.2705429294230E-06
(PID.TID 0000.0001) %MON exf_precip_min               =   0.0000000000000E+00
(PID.TID 0000.0001) %MON exf_precip_mean              =   8.0138642178109E-08
(PID.TID 0000.0001) %MON exf_precip_sd                =   1.8710421139122E-07
(PID.TID 0000.0001) %MON exf_precip_del2              =   6.3727784403999E-11
(PID.TID 0000.0001) %MON exf_swflux_max               =  -9.4491763613173E+00
(PID.TID 0000.0001) %MON exf_swflux_min               =  -6.8890793954159E+02
(PID.TID 0000.0001) %MON exf_swflux_mean              =  -2.9318309155890E+02
(PID.TID 0000.0001) %MON exf_swflux_sd                =   1.7105318060288E+02
(PID.TID 0000.0001) %MON exf_swflux_del2              =   1.0240279350656E-01
(PID.TID 0000.0001) %MON exf_swdown_max               =   7.5265210454677E+02
(PID.TID 0000.0001) %MON exf_swdown_min               =   1.0558096567460E+01
(PID.TID 0000.0001) %MON exf_swdown_mean              =   3.2280352021631E+02
(PID.TID 0000.0001) %MON exf_swdown_sd                =   1.8757235607207E+02
(PID.TID 0000.0001) %MON exf_swdown_del2              =   1.1266968886231E-01
(PID.TID 0000.0001) %MON exf_lwdown_max               =   4.1669630199368E+02
(PID.TID 0000.0001) %MON exf_lwdown_min               =   1.8738586395315E+02
(PID.TID 0000.0001) %MON exf_lwdown_mean              =   3.4151765348708E+02
(PID.TID 0000.0001) %MON exf_lwdown_sd                =   3.5534932247713E+01
(PID.TID 0000.0001) %MON exf_lwdown_del2              =   1.0481727589190E-01
(PID.TID 0000.0001) %MON exf_apressure_max            =   1.0269093146853E+05
(PID.TID 0000.0001) %MON exf_apressure_min            =   9.7975956021150E+04
(PID.TID 0000.0001) %MON exf_apressure_mean           =   1.0127571661405E+05
(PID.TID 0000.0001) %MON exf_apressure_sd             =   9.7071808319650E+02
(PID.TID 0000.0001) %MON exf_apressure_del2           =   3.0944354281596E+01
(PID.TID 0000.0001) %MON exf_runoff_max               =   4.6633690723924E-08
(PID.TID 0000.0001) %MON exf_runoff_min               =   0.0000000000000E+00
(PID.TID 0000.0001) %MON exf_runoff_mean              =   1.6070446344693E-09
(PID.TID 0000.0001) %MON exf_runoff_sd                =   5.4409705936606E-09
(PID.TID 0000.0001) %MON exf_runoff_del2              =   1.7602788524736E-12
(PID.TID 0000.0001) // =======================================================
(PID.TID 0000.0001) // End MONITOR EXF statistics
(PID.TID 0000.0001) // =======================================================
 cg2d: Sum(rhs),rhsMax =  -6.83935488827257E+03  6.60185695193427E-02
 cg2d: Sum(rhs),rhsMax =  -5.52573389455510E+03  6.65332710323391E-02
 cg2d: Sum(rhs),rhsMax =  -4.21426085103992E+03  6.70360804300425E-02
 cg2d: Sum(rhs),rhsMax =  -2.90510489944471E+03  6.75268665530615E-02
 cg2d: Sum(rhs),rhsMax =  -1.59843493542127E+03  6.80055472205992E-02
 cg2d: Sum(rhs),rhsMax =  -2.94419586165303E+02  6.84720617071707E-02
 cg2d: Sum(rhs),rhsMax =   1.00677281198983E+03  6.89263595831536E-02
 cg2d: Sum(rhs),rhsMax =   2.30497423592446E+03  6.93684116064406E-02
 cg2d: Sum(rhs),rhsMax =   3.60001699808247E+03  6.97982115881971E-02
 cg2d: Sum(rhs),rhsMax =   4.89173376876094E+03  7.02157752641596E-02
 cg2d: Sum(rhs),rhsMax =   6.17995759840126E+03  7.06211377771895E-02
 cg2d: Sum(rhs),rhsMax =   7.46452193980359E+03  7.10143548063248E-02
 cg2d: Sum(rhs),rhsMax =   8.74526067033691E+03  7.13955060288428E-02
 cg2d: Sum(rhs),rhsMax =   1.00220081140765E+04  7.17647016656792E-02
 cg2d: Sum(rhs),rhsMax =   1.12945990639184E+04  7.21220868914209E-02
 cg2d: Sum(rhs),rhsMax =   1.25628688036160E+04  7.24678439679547E-02
 cg2d: Sum(rhs),rhsMax =   1.38266531297984E+04  7.28021958381275E-02
 cg2d: Sum(rhs),rhsMax =   1.50857883738934E+04  7.31253944296190E-02
 cg2d: Sum(rhs),rhsMax =   1.63401114240257E+04  7.34377329228743E-02
 cg2d: Sum(rhs),rhsMax =   1.75894597468248E+04  7.37395133953335E-02
 cg2d: Sum(rhs),rhsMax =   1.88336714091877E+04  7.40310843195035E-02
 cg2d: Sum(rhs),rhsMax =   2.00725850999510E+04  7.43127931240847E-02
 cg2d: Sum(rhs),rhsMax =   2.13060401515162E+04  7.45849857437808E-02
 cg2d: Sum(rhs),rhsMax =   2.25338765613692E+04  7.48480446329826E-02
 cg2d: Sum(rhs),rhsMax =   2.37559350135525E+04  7.51023437129307E-02
 cg2d: Sum(rhs),rhsMax =   2.49720569000249E+04  7.53482548593868E-02
 cg2d: Sum(rhs),rhsMax =   2.61820843419643E+04  7.55861603569670E-02
 cg2d: Sum(rhs),rhsMax =   2.73858602109528E+04  7.58164455657985E-02
 cg2d: Sum(rhs),rhsMax =   2.85832281501037E+04  7.60394980436944E-02
 cg2d: Sum(rhs),rhsMax =   2.97740325950579E+04  7.62557041779451E-02
 cg2d: Sum(rhs),rhsMax =   3.09581187949174E+04  7.64654495146265E-02
 cg2d: Sum(rhs),rhsMax =   3.21353328330465E+04  7.66691172699180E-02
 cg2d: Sum(rhs),rhsMax =   3.33055216477991E+04  7.68670846275601E-02
 cg2d: Sum(rhs),rhsMax =   3.44685330531057E+04  7.70597229166435E-02
 cg2d: Sum(rhs),rhsMax =   3.56242157589899E+04  7.72474067087251E-02
 cg2d: Sum(rhs),rhsMax =   3.67724193919275E+04  7.74304645158324E-02
 cg2d: Sum(rhs),rhsMax =   3.79129945151365E+04  7.76092041028554E-02
 cg2d: Sum(rhs),rhsMax =   3.90457926487010E+04  7.77839264698149E-02
 cg2d: Sum(rhs),rhsMax =   4.01706662896181E+04  7.79549188785669E-02
 cg2d: Sum(rhs),rhsMax =   4.12874689316753E+04  7.81224447929128E-02
 cg2d: Sum(rhs),rhsMax =   4.23960550852469E+04  7.82867381679062E-02
 cg2d: Sum(rhs),rhsMax =   4.34962802969085E+04  7.84480019746201E-02
 cg2d: Sum(rhs),rhsMax =   4.45880011689704E+04  7.86064082942281E-02
 cg2d: Sum(rhs),rhsMax =   4.56710753788247E+04  7.87620990980184E-02
 cg2d: Sum(rhs),rhsMax =   4.67453616981971E+04  7.89151916361485E-02
(PID.TID 0000.0001)      cg2d_init_res =   1.01654837058683E+00
(PID.TID 0000.0001)      cg2d_iters(min,last) =      -1     153
(PID.TID 0000.0001)      cg2d_last_res =   1.99720786915014E-11
(PID.TID 0000.0001) // =======================================================
(PID.TID 0000.0001) // Begin MONITOR dynamic field statistics
(PID.TID 0000.0001) // =======================================================
(PID.TID 0000.0001) %MON time_tsnumber                =              15812010
(PID.TID 0000.0001) %MON time_secondsf                =   1.2649608000000E+09
(PID.TID 0000.0001) %MON dynstat_eta_max              =   7.2504639158598E-01
(PID.TID 0000.0001) %MON dynstat_eta_min              =  -1.3617495607941E+00
(PID.TID 0000.0001) %MON dynstat_eta_mean             =  -1.7666088186490E-01
(PID.TID 0000.0001) %MON dynstat_eta_sd               =   2.9158062217308E-01
(PID.TID 0000.0001) %MON dynstat_eta_del2             =   1.1615363759529E-06
(PID.TID 0000.0001) %MON dynstat_uvel_max             =   2.6102444651129E+00
(PID.TID 0000.0001) %MON dynstat_uvel_min             =  -2.5652392626681E+00
(PID.TID 0000.0001) %MON dynstat_uvel_mean            =  -7.8498623020829E-03
(PID.TID 0000.0001) %MON dynstat_uvel_sd              =   9.4105950087324E-02
(PID.TID 0000.0001) %MON dynstat_uvel_del2            =   2.0081061552996E-06
(PID.TID 0000.0001) %MON dynstat_vvel_max             =   3.2102408208468E+00
(PID.TID 0000.0001) %MON dynstat_vvel_min             =  -2.9203578469169E+00
(PID.TID 0000.0001) %MON dynstat_vvel_mean            =  -1.5463316738139E-02
(PID.TID 0000.0001) %MON dynstat_vvel_sd              =   8.6791057943126E-02
(PID.TID 0000.0001) %MON dynstat_vvel_del2            =   1.8903464750854E-06
(PID.TID 0000.0001) %MON dynstat_wvel_max             =   3.8328953725079E-02
(PID.TID 0000.0001) %MON dynstat_wvel_min             =  -3.7028240032020E-02
(PID.TID 0000.0001) %MON dynstat_wvel_mean            =  -3.2759430427431E-05
(PID.TID 0000.0001) %MON dynstat_wvel_sd              =   1.6509608247173E-03
(PID.TID 0000.0001) %MON dynstat_wvel_del2            =   9.9720198781261E-08
(PID.TID 0000.0001) %MON dynstat_theta_max            =   2.4972096421283E+01
(PID.TID 0000.0001) %MON dynstat_theta_min            =  -2.6330571188583E+00
(PID.TID 0000.0001) %MON dynstat_theta_mean           =   5.5835678793246E+00
(PID.TID 0000.0001) %MON dynstat_theta_sd             =   4.6773777422992E+00
(PID.TID 0000.0001) %MON dynstat_theta_del2           =   7.4036099066263E-06
(PID.TID 0000.0001) %MON dynstat_salt_max             =   8.9639025878962E+01
(PID.TID 0000.0001) %MON dynstat_salt_min             =   2.0155128496399E+00
(PID.TID 0000.0001) %MON dynstat_salt_mean            =   3.5191445707455E+01
(PID.TID 0000.0001) %MON dynstat_salt_sd              =   4.5291203153670E-01
(PID.TID 0000.0001) %MON dynstat_salt_del2            =   1.4871146656958E-06
(PID.TID 0000.0001) %MON dynstat_sst_max              =   2.4956738779773E+01
(PID.TID 0000.0001) %MON dynstat_sst_min              =  -2.6330571188583E+00
(PID.TID 0000.0001) %MON dynstat_sst_mean             =   1.7741118325849E+01
(PID.TID 0000.0001) %MON dynstat_sst_sd               =   3.4160435476079E+00
(PID.TID 0000.0001) %MON dynstat_sst_del2             =   9.5431977296267E-05
(PID.TID 0000.0001) %MON dynstat_sss_max              =   8.9518364652942E+01
(PID.TID 0000.0001) %MON dynstat_sss_min              =   2.0155128496399E+00
(PID.TID 0000.0001) %MON dynstat_sss_mean             =   3.6426219791782E+01
(PID.TID 0000.0001) %MON dynstat_sss_sd               =   4.5481609892565E-01
(PID.TID 0000.0001) %MON dynstat_sss_del2             =   1.8578149148771E-05
(PID.TID 0000.0001) %MON forcing_qnet_max             =   1.1671427530110E+03
(PID.TID 0000.0001) %MON forcing_qnet_min             =  -5.5612507534133E+02
(PID.TID 0000.0001) %MON forcing_qnet_mean            =   6.3163076627186E+01
(PID.TID 0000.0001) %MON forcing_qnet_sd              =   2.4163133974545E+02
(PID.TID 0000.0001) %MON forcing_qnet_del2            =   6.1272017994302E-03
(PID.TID 0000.0001) %MON forcing_qsw_max              =  -1.5900932489500E+00
(PID.TID 0000.0001) %MON forcing_qsw_min              =  -6.8243140883970E+02
(PID.TID 0000.0001) %MON forcing_qsw_mean             =  -2.2399741034263E+02
(PID.TID 0000.0001) %MON forcing_qsw_sd               =   1.6622888548102E+02
(PID.TID 0000.0001) %MON forcing_qsw_del2             =   1.6605257691084E-04
(PID.TID 0000.0001) %MON forcing_empmr_max            =   3.1603502603339E-04
(PID.TID 0000.0001) %MON forcing_empmr_min            =  -2.7668151621927E-03
(PID.TID 0000.0001) %MON forcing_empmr_mean           =  -1.0546245211235E-05
(PID.TID 0000.0001) %MON forcing_empmr_sd             =   2.0607378138136E-04
(PID.TID 0000.0001) %MON forcing_empmr_del2           =   1.7220666953115E-09
(PID.TID 0000.0001) %MON forcing_fu_max               =   1.0688399435564E+00
(PID.TID 0000.0001) %MON forcing_fu_min               =  -3.8158324230160E-01
(PID.TID 0000.0001) %MON forcing_fu_mean              =   1.6239736120610E-01
(PID.TID 0000.0001) %MON forcing_fu_sd                =   1.9382088227253E-01
(PID.TID 0000.0001) %MON forcing_fu_del2              =   1.1235075658141E-06
(PID.TID 0000.0001) %MON forcing_fv_max               =   1.1587313858906E+00
(PID.TID 0000.0001) %MON forcing_fv_min               =  -8.0859548643608E-01
(PID.TID 0000.0001) %MON forcing_fv_mean              =   4.4210197761311E-04
(PID.TID 0000.0001) %MON forcing_fv_sd                =   2.0153439524779E-01
(PID.TID 0000.0001) %MON forcing_fv_del2              =   1.0544140358002E-06
(PID.TID 0000.0001) %MON trAdv_CFL_u_max              =   9.7557280200454E-02
(PID.TID 0000.0001) %MON trAdv_CFL_v_max              =   1.1086647522101E-01
(PID.TID 0000.0001) %MON trAdv_CFL_w_max              =   3.4375527032119E-01
(PID.TID 0000.0001) %MON advcfl_uvel_max              =   9.7557279663028E-02
(PID.TID 0000.0001) %MON advcfl_vvel_max              =   1.1087969874093E-01
(PID.TID 0000.0001) %MON advcfl_wvel_max              =   3.3802601581584E-01
(PID.TID 0000.0001) %MON advcfl_W_hf_max              =   3.4375527032119E-01
(PID.TID 0000.0001) %MON pe_b_mean                    =  -4.1611117187266E-03
(PID.TID 0000.0001) %MON ke_max                       =   5.1426212405913E+00
(PID.TID 0000.0001) %MON ke_mean                      =   8.2996521971926E-03
(PID.TID 0000.0001) %MON ke_vol                       =   4.6123795034297E+16
(PID.TID 0000.0001) %MON vort_r_min                   =  -2.1786121856061E-03
(PID.TID 0000.0001) %MON vort_r_max                   =   1.7254107797692E-03
(PID.TID 0000.0001) %MON vort_a_mean                  =   8.2145895015353E-05
(PID.TID 0000.0001) %MON vort_a_sd                    =   1.4116580669179E-05
(PID.TID 0000.0001) %MON vort_p_mean                  =   8.4437925551003E-05
(PID.TID 0000.0001) %MON vort_p_sd                    =   3.4137433243711E-05
(PID.TID 0000.0001) %MON surfExpan_theta_mean         =  -8.3673453748572E-04
(PID.TID 0000.0001) %MON surfExpan_salt_mean          =  -1.8456348534326E-03
(PID.TID 0000.0001) // =======================================================
(PID.TID 0000.0001) // End MONITOR dynamic field statistics
(PID.TID 0000.0001) // =======================================================
(PID.TID 0000.0001) // =======================================================
(PID.TID 0000.0001) // Begin OBCS MONITOR field statistics
(PID.TID 0000.0001) // =======================================================
(PID.TID 0000.0001) %MON obc_E_uVel_max               =   5.4959263624293E-01
(PID.TID 0000.0001) %MON obc_E_uVel_min               =   1.5885579475544E-01
(PID.TID 0000.0001) %MON obc_E_uVel_mean              =   3.7617072047288E-01
(PID.TID 0000.0001) %MON obc_E_uVel_sd                =   8.3734002529187E-02
(PID.TID 0000.0001) %MON obc_E_uVel_Int               =   2.5671586217907E+06
(PID.TID 0000.0001) %MON obc_N_vVel_max               =   1.9707673447962E-01
(PID.TID 0000.0001) %MON obc_N_vVel_min               =  -1.0798059023043E+00
(PID.TID 0000.0001) %MON obc_N_vVel_mean              =  -5.6631849755594E-03
(PID.TID 0000.0001) %MON obc_N_vVel_sd                =   3.9558477321187E-02
(PID.TID 0000.0001) %MON obc_N_vVel_Int               =  -8.0811637495187E+07
(PID.TID 0000.0001) %MON obc_S_vVel_max               =   1.2201485306845E+00
(PID.TID 0000.0001) %MON obc_S_vVel_min               =  -1.7565137805159E-01
(PID.TID 0000.0001) %MON obc_S_vVel_mean              =  -2.1550271752379E-02
(PID.TID 0000.0001) %MON obc_S_vVel_sd                =   2.9758027700116E-02
(PID.TID 0000.0001) %MON obc_S_vVel_Int               =  -6.5529719447718E+08
(PID.TID 0000.0001) %MON obc_E_theta_max              =   1.5981519699097E+01
(PID.TID 0000.0001) %MON obc_E_theta_min              =   1.3104037284851E+01
(PID.TID 0000.0001) %MON obc_E_theta_mean             =   1.4974089986960E+01
(PID.TID 0000.0001) %MON obc_E_theta_sd               =   6.0075505804650E-01
(PID.TID 0000.0001) %MON obc_N_theta_max              =   1.5721092224121E+01
(PID.TID 0000.0001) %MON obc_N_theta_min              =   9.7373789548874E-01
(PID.TID 0000.0001) %MON obc_N_theta_mean             =   5.3443110148828E+00
(PID.TID 0000.0001) %MON obc_N_theta_sd               =   3.5834807335781E+00
(PID.TID 0000.0001) %MON obc_S_theta_max              =   2.4979528427124E+01
(PID.TID 0000.0001) %MON obc_S_theta_min              =   1.5124862194061E+00
(PID.TID 0000.0001) %MON obc_S_theta_mean             =   5.4273114502690E+00
(PID.TID 0000.0001) %MON obc_S_theta_sd               =   5.1694562801555E+00
(PID.TID 0000.0001) %MON obc_E_salt_max               =   3.8703720092773E+01
(PID.TID 0000.0001) %MON obc_E_salt_min               =   3.6289142608643E+01
(PID.TID 0000.0001) %MON obc_E_salt_mean              =   3.6643778075730E+01
(PID.TID 0000.0001) %MON obc_E_salt_sd                =   5.5037722650442E-01
(PID.TID 0000.0001) %MON obc_N_salt_max               =   3.6066974639893E+01
(PID.TID 0000.0001) %MON obc_N_salt_min               =   3.2878395080566E+01
(PID.TID 0000.0001) %MON obc_N_salt_mean              =   3.5117165924185E+01
(PID.TID 0000.0001) %MON obc_N_salt_sd                =   3.1541903364831E-01
(PID.TID 0000.0001) %MON obc_S_salt_max               =   3.7600940704346E+01
(PID.TID 0000.0001) %MON obc_S_salt_min               =   3.4853485107422E+01
(PID.TID 0000.0001) %MON obc_S_salt_mean              =   3.5185630803177E+01
(PID.TID 0000.0001) %MON obc_S_salt_sd                =   4.9502018312198E-01
(PID.TID 0000.0001) // =======================================================
(PID.TID 0000.0001) // End OBCS MONITOR field statistics
(PID.TID 0000.0001) // =======================================================
(PID.TID 0000.0001) // =======================================================
(PID.TID 0000.0001) // Begin MONITOR ptracer field statistics
(PID.TID 0000.0001) // =======================================================
(PID.TID 0000.0001) %MON trcstat_ptracer01_max        =   0.0000000000000E+00
(PID.TID 0000.0001) %MON trcstat_ptracer01_min        =   0.0000000000000E+00
(PID.TID 0000.0001) %MON trcstat_ptracer01_mean       =   0.0000000000000E+00
(PID.TID 0000.0001) %MON trcstat_ptracer01_sd         =   0.0000000000000E+00
(PID.TID 0000.0001) %MON trcstat_ptracer01_del2       =   0.0000000000000E+00
(PID.TID 0000.0001) %MON trcstat_ptracer02_max        =   0.0000000000000E+00
(PID.TID 0000.0001) %MON trcstat_ptracer02_min        =   0.0000000000000E+00
(PID.TID 0000.0001) %MON trcstat_ptracer02_mean       =   0.0000000000000E+00
(PID.TID 0000.0001) %MON trcstat_ptracer02_sd         =   0.0000000000000E+00
(PID.TID 0000.0001) %MON trcstat_ptracer02_del2       =   0.0000000000000E+00
(PID.TID 0000.0001) // =======================================================
(PID.TID 0000.0001) // End MONITOR ptracer field statistics
(PID.TID 0000.0001) // =======================================================
(PID.TID 0000.0001) // =======================================================
(PID.TID 0000.0001) // Begin MONITOR EXF statistics
(PID.TID 0000.0001) // =======================================================
(PID.TID 0000.0001) %MON exf_tsnumber                 =              15812010
(PID.TID 0000.0001) %MON exf_time_sec                 =   1.2649608000000E+09
(PID.TID 0000.0001) %MON exf_ustress_max              =   1.0723779127146E+00
(PID.TID 0000.0001) %MON exf_ustress_min              =  -3.8132266111696E-01
(PID.TID 0000.0001) %MON exf_ustress_mean             =   1.6245528235960E-01
(PID.TID 0000.0001) %MON exf_ustress_sd               =   1.9397126065665E-01
(PID.TID 0000.0001) %MON exf_ustress_del2             =   1.2311744708751E-06
(PID.TID 0000.0001) %MON exf_vstress_max              =   1.1760465097836E+00
(PID.TID 0000.0001) %MON exf_vstress_min              =  -7.9900120559334E-01
(PID.TID 0000.0001) %MON exf_vstress_mean             =   3.8646599395354E-04
(PID.TID 0000.0001) %MON exf_vstress_sd               =   2.0185244760880E-01
(PID.TID 0000.0001) %MON exf_vstress_del2             =   1.1647205951836E-06
(PID.TID 0000.0001) %MON exf_hflux_max                =   1.1390861446175E+03
(PID.TID 0000.0001) %MON exf_hflux_min                =  -5.4763732169071E+02
(PID.TID 0000.0001) %MON exf_hflux_mean               =   6.4410785490963E+01
(PID.TID 0000.0001) %MON exf_hflux_sd                 =   2.3819228372766E+02
(PID.TID 0000.0001) %MON exf_hflux_del2               =   7.6075787857111E-02
(PID.TID 0000.0001) %MON exf_sflux_max                =   3.1599984378062E-07
(PID.TID 0000.0001) %MON exf_sflux_min                =  -2.7996927733025E-06
(PID.TID 0000.0001) %MON exf_sflux_mean               =  -1.0578196091357E-08
(PID.TID 0000.0001) %MON exf_sflux_sd                 =   2.0632921220921E-07
(PID.TID 0000.0001) %MON exf_sflux_del2               =   6.4506791580980E-11
(PID.TID 0000.0001) %MON exf_uwind_max                =   2.1188661044653E+01
(PID.TID 0000.0001) %MON exf_uwind_min                =  -1.4282414694122E+01
(PID.TID 0000.0001) %MON exf_uwind_mean               =   6.7571996299761E+00
(PID.TID 0000.0001) %MON exf_uwind_sd                 =   6.0437616693310E+00
(PID.TID 0000.0001) %MON exf_uwind_del2               =   2.8041931700633E-03
(PID.TID 0000.0001) %MON exf_vwind_max                =   2.1711989084456E+01
(PID.TID 0000.0001) %MON exf_vwind_min                =  -1.6629042087571E+01
(PID.TID 0000.0001) %MON exf_vwind_mean               =   3.0250813196917E-01
(PID.TID 0000.0001) %MON exf_vwind_sd                 =   7.7618864419793E+00
(PID.TID 0000.0001) %MON exf_vwind_del2               =   2.3888748824170E-03
(PID.TID 0000.0001) %MON exf_wspeed_max               =   2.2777686958977E+01
(PID.TID 0000.0001) %MON exf_wspeed_min               =   2.2089860420248E-03
(PID.TID 0000.0001) %MON exf_wspeed_mean              =   1.1147426161554E+01
(PID.TID 0000.0001) %MON exf_wspeed_sd                =   4.2731819801904E+00
(PID.TID 0000.0001) %MON exf_wspeed_del2              =   3.6835073752273E-03
(PID.TID 0000.0001) %MON exf_atemp_max                =   2.9712833741196E+02
(PID.TID 0000.0001) %MON exf_atemp_min                =   2.6865235227846E+02
(PID.TID 0000.0001) %MON exf_atemp_mean               =   2.8903510827665E+02
(PID.TID 0000.0001) %MON exf_atemp_sd                 =   5.0956707027287E+00
(PID.TID 0000.0001) %MON exf_atemp_del2               =   5.0583925508221E-03
(PID.TID 0000.0001) %MON exf_aqh_max                  =   1.5132711914259E-02
(PID.TID 0000.0001) %MON exf_aqh_min                  =   1.1569377294124E-03
(PID.TID 0000.0001) %MON exf_aqh_mean                 =   8.7229951791811E-03
(PID.TID 0000.0001) %MON exf_aqh_sd                   =   2.8379119384275E-03
(PID.TID 0000.0001) %MON exf_aqh_del2                 =   2.7936351507760E-06
(PID.TID 0000.0001) %MON exf_lwflux_max               =   1.8464947135144E+02
(PID.TID 0000.0001) %MON exf_lwflux_min               =  -2.2336308331511E+01
(PID.TID 0000.0001) %MON exf_lwflux_mean              =   6.3278387039213E+01
(PID.TID 0000.0001) %MON exf_lwflux_sd                =   3.0975071956531E+01
(PID.TID 0000.0001) %MON exf_lwflux_del2              =   2.1460496618899E-02
(PID.TID 0000.0001) %MON exf_evap_max                 =   3.7881107288333E-07
(PID.TID 0000.0001) %MON exf_evap_min                 =  -8.9932964378804E-08
(PID.TID 0000.0001) %MON exf_evap_mean                =   7.3532108883267E-08
(PID.TID 0000.0001) %MON exf_evap_sd                  =   6.2545105648343E-08
(PID.TID 0000.0001) %MON exf_evap_del2                =   2.9441792934126E-11
(PID.TID 0000.0001) %MON exf_precip_max               =   2.8317818145182E-06
(PID.TID 0000.0001) %MON exf_precip_min               =   0.0000000000000E+00
(PID.TID 0000.0001) %MON exf_precip_mean              =   8.2503260340155E-08
(PID.TID 0000.0001) %MON exf_precip_sd                =   1.9212591062969E-07
(PID.TID 0000.0001) %MON exf_precip_del2              =   6.5523516893540E-11
(PID.TID 0000.0001) %MON exf_swflux_max               =  -1.5224304881518E+00
(PID.TID 0000.0001) %MON exf_swflux_min               =  -6.8172016100878E+02
(PID.TID 0000.0001) %MON exf_swflux_mean              =  -2.2217250130573E+02
(PID.TID 0000.0001) %MON exf_swflux_sd                =   1.6594940642584E+02
(PID.TID 0000.0001) %MON exf_swflux_del2              =   8.3590531401176E-02
(PID.TID 0000.0001) %MON exf_swdown_max               =   7.4563200910944E+02
(PID.TID 0000.0001) %MON exf_swdown_min               =   1.6961460031364E+00
(PID.TID 0000.0001) %MON exf_swdown_mean              =   2.4456226671651E+02
(PID.TID 0000.0001) %MON exf_swdown_sd                =   1.8217277018934E+02
(PID.TID 0000.0001) %MON exf_swdown_del2              =   9.1952627421542E-02
(PID.TID 0000.0001) %MON exf_lwdown_max               =   4.1481694928287E+02
(PID.TID 0000.0001) %MON exf_lwdown_min               =   1.9024787617124E+02
(PID.TID 0000.0001) %MON exf_lwdown_mean              =   3.4107771674984E+02
(PID.TID 0000.0001) %MON exf_lwdown_sd                =   3.5194229531200E+01
(PID.TID 0000.0001) %MON exf_lwdown_del2              =   1.0466556007394E-01
(PID.TID 0000.0001) %MON exf_apressure_max            =   1.0261068640382E+05
(PID.TID 0000.0001) %MON exf_apressure_min            =   9.7957190514889E+04
(PID.TID 0000.0001) %MON exf_apressure_mean           =   1.0124969591808E+05
(PID.TID 0000.0001) %MON exf_apressure_sd             =   9.8467820120167E+02
(PID.TID 0000.0001) %MON exf_apressure_del2           =   3.0936418658259E+01
(PID.TID 0000.0001) %MON exf_runoff_max               =   4.6633690723924E-08
(PID.TID 0000.0001) %MON exf_runoff_min               =   0.0000000000000E+00
(PID.TID 0000.0001) %MON exf_runoff_mean              =   1.6070446344693E-09
(PID.TID 0000.0001) %MON exf_runoff_sd                =   5.4409705936606E-09
(PID.TID 0000.0001) %MON exf_runoff_del2              =   1.7602788524736E-12
(PID.TID 0000.0001) // =======================================================
(PID.TID 0000.0001) // End MONITOR EXF statistics
(PID.TID 0000.0001) // =======================================================
 cg2d: Sum(rhs),rhsMax =   4.78107200122112E+04  7.90657699838646E-02
 cg2d: Sum(rhs),rhsMax =   4.88670113383596E+04  7.92138900682056E-02
 cg2d: Sum(rhs),rhsMax =   4.99140978452671E+04  7.93595857876198E-02
 cg2d: Sum(rhs),rhsMax =   5.09518428713659E+04  7.95028652512882E-02
 cg2d: Sum(rhs),rhsMax =   5.19801109433552E+04  7.96437162396379E-02
 cg2d: Sum(rhs),rhsMax =   5.29987677945637E+04  7.97821085091615E-02
 cg2d: Sum(rhs),rhsMax =   5.40076803830910E+04  7.99179956817599E-02
 cg2d: Sum(rhs),rhsMax =   5.50067169098560E+04  8.00513155899337E-02
 cg2d: Sum(rhs),rhsMax =   5.59957468364059E+04  8.01819910766258E-02
 cg2d: Sum(rhs),rhsMax =   5.69746409026332E+04  8.03099342634922E-02
 cg2d: Sum(rhs),rhsMax =   5.79432711442493E+04  8.04350391249923E-02
 cg2d: Sum(rhs),rhsMax =   5.89015109101577E+04  8.05571812207580E-02
 cg2d: Sum(rhs),rhsMax =   5.98492348795790E+04  8.06762168246151E-02
 cg2d: Sum(rhs),rhsMax =   6.07863190790739E+04  8.07919809535725E-02
 cg2d: Sum(rhs),rhsMax =   6.17126408993051E+04  8.09042865878517E-02
 cg2d: Sum(rhs),rhsMax =   6.26280791117017E+04  8.10129285060214E-02
 cg2d: Sum(rhs),rhsMax =   6.35325138848521E+04  8.11176883933537E-02
 cg2d: Sum(rhs),rhsMax =   6.44258268007963E+04  8.12183410525484E-02
 cg2d: Sum(rhs),rhsMax =   6.53079008710345E+04  8.13146615265353E-02
 cg2d: Sum(rhs),rhsMax =   6.61786205524469E+04  8.14064345164351E-02
 cg2d: Sum(rhs),rhsMax =   6.70378717629071E+04  8.14934559824041E-02
 cg2d: Sum(rhs),rhsMax =   6.78855418968101E+04  8.15755321525358E-02
 cg2d: Sum(rhs),rhsMax =   6.87215198402941E+04  8.16524909045029E-02
 cg2d: Sum(rhs),rhsMax =   6.95456959863635E+04  8.17241799720820E-02
 cg2d: Sum(rhs),rhsMax =   7.03579622497030E+04  8.17904604598269E-02
 cg2d: Sum(rhs),rhsMax =   7.11582120813970E+04  8.18512006799798E-02
 cg2d: Sum(rhs),rhsMax =   7.19463404833193E+04  8.19062733631870E-02
 cg2d: Sum(rhs),rhsMax =   7.27222440224407E+04  8.19555554872437E-02
 cg2d: Sum(rhs),rhsMax =   7.34858208447949E+04  8.19989289732829E-02
 cg2d: Sum(rhs),rhsMax =   7.42369706893556E+04  8.20362782845514E-02
 cg2d: Sum(rhs),rhsMax =   7.49755949015744E+04  8.20674913382375E-02
 cg2d: Sum(rhs),rhsMax =   7.57015964468186E+04  8.20924559253831E-02
 cg2d: Sum(rhs),rhsMax =   7.64148799234704E+04  8.21110688585421E-02
 cg2d: Sum(rhs),rhsMax =   7.71153515759227E+04  8.21232251197259E-02
 cg2d: Sum(rhs),rhsMax =   7.78029193072335E+04  8.21288327973688E-02
 cg2d: Sum(rhs),rhsMax =   7.84774926916652E+04  8.21278061683343E-02
 cg2d: Sum(rhs),rhsMax =   7.91389829868848E+04  8.21200631159043E-02
 cg2d: Sum(rhs),rhsMax =   7.97873031460515E+04  8.21055259716305E-02
 cg2d: Sum(rhs),rhsMax =   8.04223678295457E+04  8.20841228200712E-02
 cg2d: Sum(rhs),rhsMax =   8.10440934165951E+04  8.20557884124383E-02
 cg2d: Sum(rhs),rhsMax =   8.16523980165399E+04  8.20204646686333E-02
 cg2d: Sum(rhs),rhsMax =   8.22472014799802E+04  8.19781025143133E-02
 cg2d: Sum(rhs),rhsMax =   8.28284254095676E+04  8.19286547160033E-02
 cg2d: Sum(rhs),rhsMax =   8.33959931706764E+04  8.18720840782108E-02
 cg2d: Sum(rhs),rhsMax =   8.39498299017104E+04  8.18083538502748E-02
(PID.TID 0000.0001)      cg2d_init_res =   8.16386196110585E-01
(PID.TID 0000.0001)      cg2d_iters(min,last) =      -1     152
(PID.TID 0000.0001)      cg2d_last_res =   1.93880404574929E-11
(PID.TID 0000.0001) // =======================================================
(PID.TID 0000.0001) // Begin MONITOR dynamic field statistics
(PID.TID 0000.0001) // =======================================================
(PID.TID 0000.0001) %MON time_tsnumber                =              15812055
(PID.TID 0000.0001) %MON time_secondsf                =   1.2649644000000E+09
(PID.TID 0000.0001) %MON dynstat_eta_max              =   7.2708951082988E-01
(PID.TID 0000.0001) %MON dynstat_eta_min              =  -1.6262957974252E+00
(PID.TID 0000.0001) %MON dynstat_eta_mean             =  -3.1726465351997E-01
(PID.TID 0000.0001) %MON dynstat_eta_sd               =   3.2051421296872E-01
(PID.TID 0000.0001) %MON dynstat_eta_del2             =   1.1378277800523E-06
(PID.TID 0000.0001) %MON dynstat_uvel_max             =   2.5987599032099E+00
(PID.TID 0000.0001) %MON dynstat_uvel_min             =  -2.6093200564599E+00
(PID.TID 0000.0001) %MON dynstat_uvel_mean            =  -1.2766443255718E-02
(PID.TID 0000.0001) %MON dynstat_uvel_sd              =   9.4128253115980E-02
(PID.TID 0000.0001) %MON dynstat_uvel_del2            =   2.0037758364887E-06
(PID.TID 0000.0001) %MON dynstat_vvel_max             =   3.1472334703654E+00
(PID.TID 0000.0001) %MON dynstat_vvel_min             =  -2.9531863892671E+00
(PID.TID 0000.0001) %MON dynstat_vvel_mean            =  -1.3860466103562E-02
(PID.TID 0000.0001) %MON dynstat_vvel_sd              =   8.6769735961973E-02
(PID.TID 0000.0001) %MON dynstat_vvel_del2            =   1.8877431723443E-06
(PID.TID 0000.0001) %MON dynstat_wvel_max             =   3.8486290990062E-02
(PID.TID 0000.0001) %MON dynstat_wvel_min             =  -3.1710010866767E-02
(PID.TID 0000.0001) %MON dynstat_wvel_mean            =  -1.8217604959137E-05
(PID.TID 0000.0001) %MON dynstat_wvel_sd              =   1.6463774911571E-03
(PID.TID 0000.0001) %MON dynstat_wvel_del2            =   9.8982285274471E-08
(PID.TID 0000.0001) %MON dynstat_theta_max            =   2.4971762521758E+01
(PID.TID 0000.0001) %MON dynstat_theta_min            =  -2.5845145248665E+00
(PID.TID 0000.0001) %MON dynstat_theta_mean           =   5.5839131965953E+00
(PID.TID 0000.0001) %MON dynstat_theta_sd             =   4.6776611117719E+00
(PID.TID 0000.0001) %MON dynstat_theta_del2           =   7.3983672117446E-06
(PID.TID 0000.0001) %MON dynstat_salt_max             =   8.9611144829126E+01
(PID.TID 0000.0001) %MON dynstat_salt_min             =   2.0155440799743E+00
(PID.TID 0000.0001) %MON dynstat_salt_mean            =   3.5191482963201E+01
(PID.TID 0000.0001) %MON dynstat_salt_sd              =   4.5295443726111E-01
(PID.TID 0000.0001) %MON dynstat_salt_del2            =   1.4880345571043E-06
(PID.TID 0000.0001) %MON dynstat_sst_max              =   2.4956541732669E+01
(PID.TID 0000.0001) %MON dynstat_sst_min              =  -2.5845145248665E+00
(PID.TID 0000.0001) %MON dynstat_sst_mean             =   1.7733977713091E+01
(PID.TID 0000.0001) %MON dynstat_sst_sd               =   3.4144187582416E+00
(PID.TID 0000.0001) %MON dynstat_sst_del2             =   9.4659113688425E-05
(PID.TID 0000.0001) %MON dynstat_sss_max              =   8.9545803412440E+01
(PID.TID 0000.0001) %MON dynstat_sss_min              =   2.0155440799743E+00
(PID.TID 0000.0001) %MON dynstat_sss_mean             =   3.6426011349531E+01
(PID.TID 0000.0001) %MON dynstat_sss_sd               =   4.5464078398740E-01
(PID.TID 0000.0001) %MON dynstat_sss_del2             =   1.8335845324854E-05
(PID.TID 0000.0001) %MON forcing_qnet_max             =   1.2887458086460E+03
(PID.TID 0000.0001) %MON forcing_qnet_min             =  -5.7034940906904E+02
(PID.TID 0000.0001) %MON forcing_qnet_mean            =   1.4430862992113E+02
(PID.TID 0000.0001) %MON forcing_qnet_sd              =   2.2289227721461E+02
(PID.TID 0000.0001) %MON forcing_qnet_del2            =   6.1092097617651E-03
(PID.TID 0000.0001) %MON forcing_qsw_max              =   0.0000000000000E+00
(PID.TID 0000.0001) %MON forcing_qsw_min              =  -6.2607368296889E+02
(PID.TID 0000.0001) %MON forcing_qsw_mean             =  -1.4495268917674E+02
(PID.TID 0000.0001) %MON forcing_qsw_sd               =   1.4490103552325E+02
(PID.TID 0000.0001) %MON forcing_qsw_del2             =   1.3190770883708E-04
(PID.TID 0000.0001) %MON forcing_empmr_max            =   3.0161071419121E-04
(PID.TID 0000.0001) %MON forcing_empmr_min            =  -2.5793119513448E-03
(PID.TID 0000.0001) %MON forcing_empmr_mean           =  -1.2926210085284E-05
(PID.TID 0000.0001) %MON forcing_empmr_sd             =   2.1925506384111E-04
(PID.TID 0000.0001) %MON forcing_empmr_del2           =   1.7856470947686E-09
(PID.TID 0000.0001) %MON forcing_fu_max               =   1.0639795504319E+00
(PID.TID 0000.0001) %MON forcing_fu_min               =  -3.9494306979182E-01
(PID.TID 0000.0001) %MON forcing_fu_mean              =   1.6256442497866E-01
(PID.TID 0000.0001) %MON forcing_fu_sd                =   1.8867915795473E-01
(PID.TID 0000.0001) %MON forcing_fu_del2              =   1.1018671722055E-06
(PID.TID 0000.0001) %MON forcing_fv_max               =   1.4616983753521E+00
(PID.TID 0000.0001) %MON forcing_fv_min               =  -8.4952306682939E-01
(PID.TID 0000.0001) %MON forcing_fv_mean              =  -3.6479503601911E-03
(PID.TID 0000.0001) %MON forcing_fv_sd                =   2.0625971435611E-01
(PID.TID 0000.0001) %MON forcing_fv_del2              =   1.0725408729590E-06
(PID.TID 0000.0001) %MON trAdv_CFL_u_max              =   8.9046604067507E-02
(PID.TID 0000.0001) %MON trAdv_CFL_v_max              =   1.0869049022419E-01
(PID.TID 0000.0001) %MON trAdv_CFL_w_max              =   3.6694551008602E-01
(PID.TID 0000.0001) %MON advcfl_uvel_max              =   8.9046603576958E-02
(PID.TID 0000.0001) %MON advcfl_vvel_max              =   1.0870346448633E-01
(PID.TID 0000.0001) %MON advcfl_wvel_max              =   3.6082975158459E-01
(PID.TID 0000.0001) %MON advcfl_W_hf_max              =   3.6694551008602E-01
(PID.TID 0000.0001) %MON pe_b_mean                    =  -7.4487665619554E-03
(PID.TID 0000.0001) %MON ke_max                       =   5.0079290656144E+00
(PID.TID 0000.0001) %MON ke_mean                      =   8.3269759987850E-03
(PID.TID 0000.0001) %MON ke_vol                       =   4.6123795034297E+16
(PID.TID 0000.0001) %MON vort_r_min                   =  -1.8278778084647E-03
(PID.TID 0000.0001) %MON vort_r_max                   =   1.4394463496844E-03
(PID.TID 0000.0001) %MON vort_a_mean                  =   8.2145895818471E-05
(PID.TID 0000.0001) %MON vort_a_sd                    =   1.4126632653714E-05
(PID.TID 0000.0001) %MON vort_p_mean                  =   8.4437926376530E-05
(PID.TID 0000.0001) %MON vort_p_sd                    =   3.4152963824659E-05
(PID.TID 0000.0001) %MON surfExpan_theta_mean         =  -3.9313127557774E-04
(PID.TID 0000.0001) %MON surfExpan_salt_mean          =  -9.4869257440872E-04
(PID.TID 0000.0001) // =======================================================
(PID.TID 0000.0001) // End MONITOR dynamic field statistics
(PID.TID 0000.0001) // =======================================================
(PID.TID 0000.0001) // =======================================================
(PID.TID 0000.0001) // Begin OBCS MONITOR field statistics
(PID.TID 0000.0001) // =======================================================
(PID.TID 0000.0001) %MON obc_E_uVel_max               =   3.5136445782272E-01
(PID.TID 0000.0001) %MON obc_E_uVel_min               =  -1.3686576935590E-02
(PID.TID 0000.0001) %MON obc_E_uVel_mean              =   2.0382404906937E-01
(PID.TID 0000.0001) %MON obc_E_uVel_sd                =   7.9602301330499E-02
(PID.TID 0000.0001) %MON obc_E_uVel_Int               =   1.3909872204805E+06
(PID.TID 0000.0001) %MON obc_N_vVel_max               =   1.8515924548525E-01
(PID.TID 0000.0001) %MON obc_N_vVel_min               =  -1.1729479636197E+00
(PID.TID 0000.0001) %MON obc_N_vVel_mean              =  -1.0994536384147E-02
(PID.TID 0000.0001) %MON obc_N_vVel_sd                =   4.0495729393834E-02
(PID.TID 0000.0001) %MON obc_N_vVel_Int               =  -1.5688812788878E+08
(PID.TID 0000.0001) %MON obc_S_vVel_max               =   1.2339997911322E+00
(PID.TID 0000.0001) %MON obc_S_vVel_min               =  -1.7288101307554E-01
(PID.TID 0000.0001) %MON obc_S_vVel_mean              =  -1.4897160139448E-02
(PID.TID 0000.0001) %MON obc_S_vVel_sd                =   2.9326127315067E-02
(PID.TID 0000.0001) %MON obc_S_vVel_Int               =  -4.5299044750930E+08
(PID.TID 0000.0001) %MON obc_E_theta_max              =   1.5981519699097E+01
(PID.TID 0000.0001) %MON obc_E_theta_min              =   1.3104037284851E+01
(PID.TID 0000.0001) %MON obc_E_theta_mean             =   1.4974089986960E+01
(PID.TID 0000.0001) %MON obc_E_theta_sd               =   6.0075505804650E-01
(PID.TID 0000.0001) %MON obc_N_theta_max              =   1.5721092224121E+01
(PID.TID 0000.0001) %MON obc_N_theta_min              =   9.7373789548874E-01
(PID.TID 0000.0001) %MON obc_N_theta_mean             =   5.3443110148828E+00
(PID.TID 0000.0001) %MON obc_N_theta_sd               =   3.5834807335781E+00
(PID.TID 0000.0001) %MON obc_S_theta_max              =   2.4979528427124E+01
(PID.TID 0000.0001) %MON obc_S_theta_min              =   1.5124862194061E+00
(PID.TID 0000.0001) %MON obc_S_theta_mean             =   5.4273114502690E+00
(PID.TID 0000.0001) %MON obc_S_theta_sd               =   5.1694562801555E+00
(PID.TID 0000.0001) %MON obc_E_salt_max               =   3.8703720092773E+01
(PID.TID 0000.0001) %MON obc_E_salt_min               =   3.6289142608643E+01
(PID.TID 0000.0001) %MON obc_E_salt_mean              =   3.6643778075730E+01
(PID.TID 0000.0001) %MON obc_E_salt_sd                =   5.5037722650442E-01
(PID.TID 0000.0001) %MON obc_N_salt_max               =   3.6066974639893E+01
(PID.TID 0000.0001) %MON obc_N_salt_min               =   3.2878395080566E+01
(PID.TID 0000.0001) %MON obc_N_salt_mean              =   3.5117165924185E+01
(PID.TID 0000.0001) %MON obc_N_salt_sd                =   3.1541903364831E-01
(PID.TID 0000.0001) %MON obc_S_salt_max               =   3.7600940704346E+01
(PID.TID 0000.0001) %MON obc_S_salt_min               =   3.4853485107422E+01
(PID.TID 0000.0001) %MON obc_S_salt_mean              =   3.5185630803177E+01
(PID.TID 0000.0001) %MON obc_S_salt_sd                =   4.9502018312198E-01
(PID.TID 0000.0001) // =======================================================
(PID.TID 0000.0001) // End OBCS MONITOR field statistics
(PID.TID 0000.0001) // =======================================================
(PID.TID 0000.0001) // =======================================================
(PID.TID 0000.0001) // Begin MONITOR ptracer field statistics
(PID.TID 0000.0001) // =======================================================
(PID.TID 0000.0001) %MON trcstat_ptracer01_max        =   0.0000000000000E+00
(PID.TID 0000.0001) %MON trcstat_ptracer01_min        =   0.0000000000000E+00
(PID.TID 0000.0001) %MON trcstat_ptracer01_mean       =   0.0000000000000E+00
(PID.TID 0000.0001) %MON trcstat_ptracer01_sd         =   0.0000000000000E+00
(PID.TID 0000.0001) %MON trcstat_ptracer01_del2       =   0.0000000000000E+00
(PID.TID 0000.0001) %MON trcstat_ptracer02_max        =   0.0000000000000E+00
(PID.TID 0000.0001) %MON trcstat_ptracer02_min        =   0.0000000000000E+00
(PID.TID 0000.0001) %MON trcstat_ptracer02_mean       =   0.0000000000000E+00
(PID.TID 0000.0001) %MON trcstat_ptracer02_sd         =   0.0000000000000E+00
(PID.TID 0000.0001) %MON trcstat_ptracer02_del2       =   0.0000000000000E+00
(PID.TID 0000.0001) // =======================================================
(PID.TID 0000.0001) // End MONITOR ptracer field statistics
(PID.TID 0000.0001) // =======================================================
(PID.TID 0000.0001) // =======================================================
(PID.TID 0000.0001) // Begin MONITOR EXF statistics
(PID.TID 0000.0001) // =======================================================
(PID.TID 0000.0001) %MON exf_tsnumber                 =              15812055
(PID.TID 0000.0001) %MON exf_time_sec                 =   1.2649644000000E+09
(PID.TID 0000.0001) %MON exf_ustress_max              =   1.0678906611635E+00
(PID.TID 0000.0001) %MON exf_ustress_min              =  -3.9711469897885E-01
(PID.TID 0000.0001) %MON exf_ustress_mean             =   1.6258258769370E-01
(PID.TID 0000.0001) %MON exf_ustress_sd               =   1.8874903297119E-01
(PID.TID 0000.0001) %MON exf_ustress_del2             =   1.2082352191571E-06
(PID.TID 0000.0001) %MON exf_vstress_max              =   1.4799363529652E+00
(PID.TID 0000.0001) %MON exf_vstress_min              =  -8.4490623135330E-01
(PID.TID 0000.0001) %MON exf_vstress_mean             =  -3.6956058748492E-03
(PID.TID 0000.0001) %MON exf_vstress_sd               =   2.0657332595152E-01
(PID.TID 0000.0001) %MON exf_vstress_del2             =   1.1809252114971E-06
(PID.TID 0000.0001) %MON exf_hflux_max                =   1.2587390768851E+03
(PID.TID 0000.0001) %MON exf_hflux_min                =  -5.0195666132697E+02
(PID.TID 0000.0001) %MON exf_hflux_mean               =   1.4558636049534E+02
(PID.TID 0000.0001) %MON exf_hflux_sd                 =   2.1781345247046E+02
(PID.TID 0000.0001) %MON exf_hflux_del2               =   8.0930611723052E-02
(PID.TID 0000.0001) %MON exf_sflux_max                =   3.0222470846614E-07
(PID.TID 0000.0001) %MON exf_sflux_min                =  -2.5758703105706E-06
(PID.TID 0000.0001) %MON exf_sflux_mean               =  -1.2968568647582E-08
(PID.TID 0000.0001) %MON exf_sflux_sd                 =   2.1947641660113E-07
(PID.TID 0000.0001) %MON exf_sflux_del2               =   6.8771369334798E-11
(PID.TID 0000.0001) %MON exf_uwind_max                =   2.0922492238226E+01
(PID.TID 0000.0001) %MON exf_uwind_min                =  -1.4767585286780E+01
(PID.TID 0000.0001) %MON exf_uwind_mean               =   6.7837370377197E+00
(PID.TID 0000.0001) %MON exf_uwind_sd                 =   5.9040117343315E+00
(PID.TID 0000.0001) %MON exf_uwind_del2               =   2.7800053816861E-03
(PID.TID 0000.0001) %MON exf_vwind_max                =   2.3235476177525E+01
(PID.TID 0000.0001) %MON exf_vwind_min                =  -1.7389016616007E+01
(PID.TID 0000.0001) %MON exf_vwind_mean               =   1.2746379096145E-01
(PID.TID 0000.0001) %MON exf_vwind_sd                 =   7.8940891721918E+00
(PID.TID 0000.0001) %MON exf_vwind_del2               =   2.4291574794228E-03
(PID.TID 0000.0001) %MON exf_wspeed_max               =   2.4992630932493E+01
(PID.TID 0000.0001) %MON exf_wspeed_min               =   1.2133386475022E-02
(PID.TID 0000.0001) %MON exf_wspeed_mean              =   1.1184883265456E+01
(PID.TID 0000.0001) %MON exf_wspeed_sd                =   4.2553166710252E+00
(PID.TID 0000.0001) %MON exf_wspeed_del2              =   3.6915122057951E-03
(PID.TID 0000.0001) %MON exf_atemp_max                =   2.9725598162874E+02
(PID.TID 0000.0001) %MON exf_atemp_min                =   2.6905917046771E+02
(PID.TID 0000.0001) %MON exf_atemp_mean               =   2.8903649629714E+02
(PID.TID 0000.0001) %MON exf_atemp_sd                 =   5.0817385781013E+00
(PID.TID 0000.0001) %MON exf_atemp_del2               =   5.0576508543762E-03
(PID.TID 0000.0001) %MON exf_aqh_max                  =   1.5192938003282E-02
(PID.TID 0000.0001) %MON exf_aqh_min                  =   1.1617602049028E-03
(PID.TID 0000.0001) %MON exf_aqh_mean                 =   8.7199020863216E-03
(PID.TID 0000.0001) %MON exf_aqh_sd                   =   2.8306373112697E-03
(PID.TID 0000.0001) %MON exf_aqh_del2                 =   2.7920798987719E-06
(PID.TID 0000.0001) %MON exf_lwflux_max               =   1.8738387033338E+02
(PID.TID 0000.0001) %MON exf_lwflux_min               =  -2.3813939426098E+01
(PID.TID 0000.0001) %MON exf_lwflux_mean              =   6.3886267137307E+01
(PID.TID 0000.0001) %MON exf_lwflux_sd                =   3.1500208420630E+01
(PID.TID 0000.0001) %MON exf_lwflux_del2              =   2.1714275500667E-02
(PID.TID 0000.0001) %MON exf_evap_max                 =   3.9032170132463E-07
(PID.TID 0000.0001) %MON exf_evap_min                 =  -1.1620434641741E-07
(PID.TID 0000.0001) %MON exf_evap_mean                =   7.4050090318085E-08
(PID.TID 0000.0001) %MON exf_evap_sd                  =   6.3442815213363E-08
(PID.TID 0000.0001) %MON exf_evap_del2                =   2.9748634115045E-11
(PID.TID 0000.0001) %MON exf_precip_max               =   2.5762291982443E-06
(PID.TID 0000.0001) %MON exf_precip_min               =   0.0000000000000E+00
(PID.TID 0000.0001) %MON exf_precip_mean              =   8.5411614331197E-08
(PID.TID 0000.0001) %MON exf_precip_sd                =   2.0489308686563E-07
(PID.TID 0000.0001) %MON exf_precip_del2              =   6.9654247117399E-11
(PID.TID 0000.0001) %MON exf_swflux_max               =   0.0000000000000E+00
(PID.TID 0000.0001) %MON exf_swflux_min               =  -6.2404138898018E+02
(PID.TID 0000.0001) %MON exf_swflux_mean              =  -1.4327086148185E+02
(PID.TID 0000.0001) %MON exf_swflux_sd                =   1.4416001898855E+02
(PID.TID 0000.0001) %MON exf_swflux_del2              =   6.1174241789378E-02
(PID.TID 0000.0001) %MON exf_swdown_max               =   6.8270537859262E+02
(PID.TID 0000.0001) %MON exf_swdown_min               =   0.0000000000000E+00
(PID.TID 0000.0001) %MON exf_swdown_mean              =   1.5765723224185E+02
(PID.TID 0000.0001) %MON exf_swdown_sd                =   1.5835760604850E+02
(PID.TID 0000.0001) %MON exf_swdown_del2              =   6.7277394409859E-02
(PID.TID 0000.0001) %MON exf_lwdown_max               =   4.1143636152578E+02
(PID.TID 0000.0001) %MON exf_lwdown_min               =   1.9036110268255E+02
(PID.TID 0000.0001) %MON exf_lwdown_mean              =   3.4041084525779E+02
(PID.TID 0000.0001) %MON exf_lwdown_sd                =   3.5782284534492E+01
(PID.TID 0000.0001) %MON exf_lwdown_del2              =   1.0446501245251E-01
(PID.TID 0000.0001) %MON exf_apressure_max            =   1.0256490595183E+05
(PID.TID 0000.0001) %MON exf_apressure_min            =   9.7960087771645E+04
(PID.TID 0000.0001) %MON exf_apressure_mean           =   1.0124035041891E+05
(PID.TID 0000.0001) %MON exf_apressure_sd             =   9.9623426578333E+02
(PID.TID 0000.0001) %MON exf_apressure_del2           =   3.0933617235111E+01
(PID.TID 0000.0001) %MON exf_runoff_max               =   4.6633690723924E-08
(PID.TID 0000.0001) %MON exf_runoff_min               =   0.0000000000000E+00
(PID.TID 0000.0001) %MON exf_runoff_mean              =   1.6070446344693E-09
(PID.TID 0000.0001) %MON exf_runoff_sd                =   5.4409705936606E-09
(PID.TID 0000.0001) %MON exf_runoff_del2              =   1.7602788524736E-12
(PID.TID 0000.0001) // =======================================================
(PID.TID 0000.0001) // End MONITOR EXF statistics
(PID.TID 0000.0001) // =======================================================
 cg2d: Sum(rhs),rhsMax =   8.44898625242894E+04  8.17374324375184E-02
 cg2d: Sum(rhs),rhsMax =   8.50160197530732E+04  8.16593042419786E-02
 cg2d: Sum(rhs),rhsMax =   8.55282321054532E+04  8.15739517911189E-02
 cg2d: Sum(rhs),rhsMax =   8.60264319108854E+04  8.14813559370263E-02
 cg2d: Sum(rhs),rhsMax =   8.65105533200858E+04  8.13814978806511E-02
 cg2d: Sum(rhs),rhsMax =   8.69805323138637E+04  8.12743589532091E-02
 cg2d: Sum(rhs),rhsMax =   8.74363067118161E+04  8.11599184939611E-02
 cg2d: Sum(rhs),rhsMax =   8.78778161806595E+04  8.10381516424869E-02
 cg2d: Sum(rhs),rhsMax =   8.83050022424177E+04  8.09090286079090E-02
 cg2d: Sum(rhs),rhsMax =   8.87178082822471E+04  8.07725161287377E-02
 cg2d: Sum(rhs),rhsMax =   8.91161795561108E+04  8.06285821582696E-02
 cg2d: Sum(rhs),rhsMax =   8.95000631980926E+04  8.04772009170013E-02
 cg2d: Sum(rhs),rhsMax =   8.98694082275567E+04  8.03183511504238E-02
 cg2d: Sum(rhs),rhsMax =   9.02241655559493E+04  8.01520226104155E-02
 cg2d: Sum(rhs),rhsMax =   9.05642879934329E+04  7.99782190944499E-02
 cg2d: Sum(rhs),rhsMax =   9.08897302551741E+04  7.97969581053921E-02
 cg2d: Sum(rhs),rhsMax =   9.12004489674518E+04  7.96082677058578E-02
 cg2d: Sum(rhs),rhsMax =   9.14964026734249E+04  7.94121817552934E-02
 cg2d: Sum(rhs),rhsMax =   9.17775518387114E+04  7.92087345214740E-02
 cg2d: Sum(rhs),rhsMax =   9.20438588566356E+04  7.89979553671993E-02
 cg2d: Sum(rhs),rhsMax =   9.22952880532749E+04  7.87798640069203E-02
 cg2d: Sum(rhs),rhsMax =   9.25318056921774E+04  7.85544667676460E-02
 cg2d: Sum(rhs),rhsMax =   9.27533799788803E+04  7.83217548701576E-02
 cg2d: Sum(rhs),rhsMax =   9.29599810651001E+04  7.80817041697280E-02
 cg2d: Sum(rhs),rhsMax =   9.31515810527121E+04  7.78342762515569E-02
 cg2d: Sum(rhs),rhsMax =   9.33281539974086E+04  7.75794198007437E-02
 cg2d: Sum(rhs),rhsMax =   9.34896759121453E+04  7.73170726020692E-02
 cg2d: Sum(rhs),rhsMax =   9.36361247702680E+04  7.70471645833732E-02
 cg2d: Sum(rhs),rhsMax =   9.37674805084143E+04  7.67696209712460E-02
 cg2d: Sum(rhs),rhsMax =   9.38837250291137E+04  7.64843653014607E-02
 cg2d: Sum(rhs),rhsMax =   9.39848422031470E+04  7.61913220640126E-02
 cg2d: Sum(rhs),rhsMax =   9.40708178716137E+04  7.58904189526207E-02
 cg2d: Sum(rhs),rhsMax =   9.41416398477450E+04  7.55815889117106E-02
 cg2d: Sum(rhs),rhsMax =   9.41972979184420E+04  7.52647726733247E-02
 cg2d: Sum(rhs),rhsMax =   9.42377838455476E+04  7.49399198233232E-02
 cg2d: Sum(rhs),rhsMax =   9.42630913668459E+04  7.46069887192065E-02
 cg2d: Sum(rhs),rhsMax =   9.42732161967971E+04  7.42659448762312E-02
 cg2d: Sum(rhs),rhsMax =   9.42681560270004E+04  7.39167589878244E-02
 cg2d: Sum(rhs),rhsMax =   9.42479105263858E+04  7.35594044242853E-02
 cg2d: Sum(rhs),rhsMax =   9.42124813411437E+04  7.31938556692410E-02
 cg2d: Sum(rhs),rhsMax =   9.41618720943763E+04  7.28200857955478E-02
 cg2d: Sum(rhs),rhsMax =   9.40960883854946E+04  7.24380644019442E-02
 cg2d: Sum(rhs),rhsMax =   9.40151377893295E+04  7.20477563812962E-02
 cg2d: Sum(rhs),rhsMax =   9.39190298549959E+04  7.16491211256035E-02
 cg2d: Sum(rhs),rhsMax =   9.38077761044627E+04  7.12421123321347E-02
(PID.TID 0000.0001)      cg2d_init_res =   6.06051513275681E-01
(PID.TID 0000.0001)      cg2d_iters(min,last) =      -1     150
(PID.TID 0000.0001)      cg2d_last_res =   1.80072561958303E-11
(PID.TID 0000.0001) // =======================================================
(PID.TID 0000.0001) // Begin MONITOR dynamic field statistics
(PID.TID 0000.0001) // =======================================================
(PID.TID 0000.0001) %MON time_tsnumber                =              15812100
(PID.TID 0000.0001) %MON time_secondsf                =   1.2649680000000E+09
(PID.TID 0000.0001) %MON dynstat_eta_max              =   8.3953687133749E-01
(PID.TID 0000.0001) %MON dynstat_eta_min              =  -1.7722366178821E+00
(PID.TID 0000.0001) %MON dynstat_eta_mean             =  -3.5451997482433E-01
(PID.TID 0000.0001) %MON dynstat_eta_sd               =   4.0086369144457E-01
(PID.TID 0000.0001) %MON dynstat_eta_del2             =   1.0779396501529E-06
(PID.TID 0000.0001) %MON dynstat_uvel_max             =   2.6307804345769E+00
(PID.TID 0000.0001) %MON dynstat_uvel_min             =  -2.6189074850043E+00
(PID.TID 0000.0001) %MON dynstat_uvel_mean            =  -1.3741487366616E-02
(PID.TID 0000.0001) %MON dynstat_uvel_sd              =   9.3920509984335E-02
(PID.TID 0000.0001) %MON dynstat_uvel_del2            =   1.9899129856470E-06
(PID.TID 0000.0001) %MON dynstat_vvel_max             =   3.0898898810568E+00
(PID.TID 0000.0001) %MON dynstat_vvel_min             =  -2.9455811839591E+00
(PID.TID 0000.0001) %MON dynstat_vvel_mean            =  -8.8758852434124E-03
(PID.TID 0000.0001) %MON dynstat_vvel_sd              =   8.6702750301236E-02
(PID.TID 0000.0001) %MON dynstat_vvel_del2            =   1.8737841851545E-06
(PID.TID 0000.0001) %MON dynstat_wvel_max             =   4.0119268946881E-02
(PID.TID 0000.0001) %MON dynstat_wvel_min             =  -3.1415589456682E-02
(PID.TID 0000.0001) %MON dynstat_wvel_mean            =   7.4797761532842E-07
(PID.TID 0000.0001) %MON dynstat_wvel_sd              =   1.6442137022474E-03
(PID.TID 0000.0001) %MON dynstat_wvel_del2            =   9.8324994537857E-08
(PID.TID 0000.0001) %MON dynstat_theta_max            =   2.4970565424987E+01
(PID.TID 0000.0001) %MON dynstat_theta_min            =  -2.5500605584005E+00
(PID.TID 0000.0001) %MON dynstat_theta_mean           =   5.5839361596307E+00
(PID.TID 0000.0001) %MON dynstat_theta_sd             =   4.6775396229237E+00
(PID.TID 0000.0001) %MON dynstat_theta_del2           =   7.4026366597437E-06
(PID.TID 0000.0001) %MON dynstat_salt_max             =   8.9590736665241E+01
(PID.TID 0000.0001) %MON dynstat_salt_min             =   2.0155728057910E+00
(PID.TID 0000.0001) %MON dynstat_salt_mean            =   3.5191488767162E+01
(PID.TID 0000.0001) %MON dynstat_salt_sd              =   4.5295345253532E-01
(PID.TID 0000.0001) %MON dynstat_salt_del2            =   1.4885879237112E-06
(PID.TID 0000.0001) %MON dynstat_sst_max              =   2.4954980135522E+01
(PID.TID 0000.0001) %MON dynstat_sst_min              =  -2.5500605584005E+00
(PID.TID 0000.0001) %MON dynstat_sst_mean             =   1.7724035037178E+01
(PID.TID 0000.0001) %MON dynstat_sst_sd               =   3.4101573692340E+00
(PID.TID 0000.0001) %MON dynstat_sst_del2             =   9.3817370495643E-05
(PID.TID 0000.0001) %MON dynstat_sss_max              =   8.9569438571443E+01
(PID.TID 0000.0001) %MON dynstat_sss_min              =   2.0155728057910E+00
(PID.TID 0000.0001) %MON dynstat_sss_mean             =   3.6425697051182E+01
(PID.TID 0000.0001) %MON dynstat_sss_sd               =   4.5440332531220E-01
(PID.TID 0000.0001) %MON dynstat_sss_del2             =   1.8054047319028E-05
(PID.TID 0000.0001) %MON forcing_qnet_max             =   1.3877276467528E+03
(PID.TID 0000.0001) %MON forcing_qnet_min             =  -5.0259207062700E+02
(PID.TID 0000.0001) %MON forcing_qnet_mean            =   2.1240275321414E+02
(PID.TID 0000.0001) %MON forcing_qnet_sd              =   2.1121542340445E+02
(PID.TID 0000.0001) %MON forcing_qnet_del2            =   6.0675421343708E-03
(PID.TID 0000.0001) %MON forcing_qsw_max              =   0.0000000000000E+00
(PID.TID 0000.0001) %MON forcing_qsw_min              =  -5.0873570687227E+02
(PID.TID 0000.0001) %MON forcing_qsw_mean             =  -7.8385238732642E+01
(PID.TID 0000.0001) %MON forcing_qsw_sd               =   1.0736557724895E+02
(PID.TID 0000.0001) %MON forcing_qsw_del2             =   8.3980964367234E-05
(PID.TID 0000.0001) %MON forcing_empmr_max            =   2.9791601280756E-04
(PID.TID 0000.0001) %MON forcing_empmr_min            =  -2.1238280879734E-03
(PID.TID 0000.0001) %MON forcing_empmr_mean           =  -1.4267075377557E-05
(PID.TID 0000.0001) %MON forcing_empmr_sd             =   2.2403954614448E-04
(PID.TID 0000.0001) %MON forcing_empmr_del2           =   1.8312180645637E-09
(PID.TID 0000.0001) %MON forcing_fu_max               =   9.9893657968012E-01
(PID.TID 0000.0001) %MON forcing_fu_min               =  -3.5075814571708E-01
(PID.TID 0000.0001) %MON forcing_fu_mean              =   1.6252050365504E-01
(PID.TID 0000.0001) %MON forcing_fu_sd                =   1.8426592368475E-01
(PID.TID 0000.0001) %MON forcing_fu_del2              =   1.0740308732289E-06
(PID.TID 0000.0001) %MON forcing_fv_max               =   1.2363018096929E+00
(PID.TID 0000.0001) %MON forcing_fv_min               =  -8.3154315599283E-01
(PID.TID 0000.0001) %MON forcing_fv_mean              =  -7.6030244042051E-03
(PID.TID 0000.0001) %MON forcing_fv_sd                =   2.0839375344366E-01
(PID.TID 0000.0001) %MON forcing_fv_del2              =   1.0463148778306E-06
(PID.TID 0000.0001) %MON trAdv_CFL_u_max              =   8.9186198802411E-02
(PID.TID 0000.0001) %MON trAdv_CFL_v_max              =   1.0671014537693E-01
(PID.TID 0000.0001) %MON trAdv_CFL_w_max              =   2.8840961236880E-01
(PID.TID 0000.0001) %MON advcfl_uvel_max              =   8.9186198311107E-02
(PID.TID 0000.0001) %MON advcfl_vvel_max              =   1.0672285298019E-01
(PID.TID 0000.0001) %MON advcfl_wvel_max              =   2.8386988140516E-01
(PID.TID 0000.0001) %MON advcfl_W_hf_max              =   2.8840961236880E-01
(PID.TID 0000.0001) %MON pe_b_mean                    =  -8.2322818136103E-03
(PID.TID 0000.0001) %MON ke_max                       =   4.9448029978785E+00
(PID.TID 0000.0001) %MON ke_mean                      =   8.2583133952654E-03
(PID.TID 0000.0001) %MON ke_vol                       =   4.6123795034297E+16
(PID.TID 0000.0001) %MON vort_r_min                   =  -1.4861028594768E-03
(PID.TID 0000.0001) %MON vort_r_max                   =   1.3714145743021E-03
(PID.TID 0000.0001) %MON vort_a_mean                  =   8.2145898060867E-05
(PID.TID 0000.0001) %MON vort_a_sd                    =   1.4102516794194E-05
(PID.TID 0000.0001) %MON vort_p_mean                  =   8.4437928681493E-05
(PID.TID 0000.0001) %MON vort_p_sd                    =   3.4102685377273E-05
(PID.TID 0000.0001) %MON surfExpan_theta_mean         =   1.4997890972168E-04
(PID.TID 0000.0001) %MON surfExpan_salt_mean          =   1.9573086184750E-04
(PID.TID 0000.0001) // =======================================================
(PID.TID 0000.0001) // End MONITOR dynamic field statistics
(PID.TID 0000.0001) // =======================================================
(PID.TID 0000.0001) // =======================================================
(PID.TID 0000.0001) // Begin OBCS MONITOR field statistics
(PID.TID 0000.0001) // =======================================================
(PID.TID 0000.0001) %MON obc_E_uVel_max               =   6.7438344342697E-02
(PID.TID 0000.0001) %MON obc_E_uVel_min               =  -2.5369087274028E-01
(PID.TID 0000.0001) %MON obc_E_uVel_mean              =  -3.5497349586858E-02
(PID.TID 0000.0001) %MON obc_E_uVel_sd                =   7.3514091899803E-02
(PID.TID 0000.0001) %MON obc_E_uVel_Int               =  -2.4224992027042E+05
(PID.TID 0000.0001) %MON obc_N_vVel_max               =   1.8612883853436E-01
(PID.TID 0000.0001) %MON obc_N_vVel_min               =  -1.0409767166193E+00
(PID.TID 0000.0001) %MON obc_N_vVel_mean              =  -1.4001114528970E-02
(PID.TID 0000.0001) %MON obc_N_vVel_sd                =   4.0688340552390E-02
(PID.TID 0000.0001) %MON obc_N_vVel_Int               =  -1.9979092979069E+08
(PID.TID 0000.0001) %MON obc_S_vVel_max               =   1.2438386290469E+00
(PID.TID 0000.0001) %MON obc_S_vVel_min               =  -1.6384055453431E-01
(PID.TID 0000.0001) %MON obc_S_vVel_mean              =  -4.6130619873172E-03
(PID.TID 0000.0001) %MON obc_S_vVel_sd                =   2.8154698575023E-02
(PID.TID 0000.0001) %MON obc_S_vVel_Int               =  -1.4027324634106E+08
(PID.TID 0000.0001) %MON obc_E_theta_max              =   1.5981519699097E+01
(PID.TID 0000.0001) %MON obc_E_theta_min              =   1.3104037284851E+01
(PID.TID 0000.0001) %MON obc_E_theta_mean             =   1.4974089986960E+01
(PID.TID 0000.0001) %MON obc_E_theta_sd               =   6.0075505804650E-01
(PID.TID 0000.0001) %MON obc_N_theta_max              =   1.5721092224121E+01
(PID.TID 0000.0001) %MON obc_N_theta_min              =   9.7373789548874E-01
(PID.TID 0000.0001) %MON obc_N_theta_mean             =   5.3443110148828E+00
(PID.TID 0000.0001) %MON obc_N_theta_sd               =   3.5834807335781E+00
(PID.TID 0000.0001) %MON obc_S_theta_max              =   2.4979528427124E+01
(PID.TID 0000.0001) %MON obc_S_theta_min              =   1.5124862194061E+00
(PID.TID 0000.0001) %MON obc_S_theta_mean             =   5.4273114502690E+00
(PID.TID 0000.0001) %MON obc_S_theta_sd               =   5.1694562801555E+00
(PID.TID 0000.0001) %MON obc_E_salt_max               =   3.8703720092773E+01
(PID.TID 0000.0001) %MON obc_E_salt_min               =   3.6289142608643E+01
(PID.TID 0000.0001) %MON obc_E_salt_mean              =   3.6643778075730E+01
(PID.TID 0000.0001) %MON obc_E_salt_sd                =   5.5037722650442E-01
(PID.TID 0000.0001) %MON obc_N_salt_max               =   3.6066974639893E+01
(PID.TID 0000.0001) %MON obc_N_salt_min               =   3.2878395080566E+01
(PID.TID 0000.0001) %MON obc_N_salt_mean              =   3.5117165924185E+01
(PID.TID 0000.0001) %MON obc_N_salt_sd                =   3.1541903364831E-01
(PID.TID 0000.0001) %MON obc_S_salt_max               =   3.7600940704346E+01
(PID.TID 0000.0001) %MON obc_S_salt_min               =   3.4853485107422E+01
(PID.TID 0000.0001) %MON obc_S_salt_mean              =   3.5185630803177E+01
(PID.TID 0000.0001) %MON obc_S_salt_sd                =   4.9502018312198E-01
(PID.TID 0000.0001) // =======================================================
(PID.TID 0000.0001) // End OBCS MONITOR field statistics
(PID.TID 0000.0001) // =======================================================
(PID.TID 0000.0001) // =======================================================
(PID.TID 0000.0001) // Begin MONITOR ptracer field statistics
(PID.TID 0000.0001) // =======================================================
(PID.TID 0000.0001) %MON trcstat_ptracer01_max        =   0.0000000000000E+00
(PID.TID 0000.0001) %MON trcstat_ptracer01_min        =   0.0000000000000E+00
(PID.TID 0000.0001) %MON trcstat_ptracer01_mean       =   0.0000000000000E+00
(PID.TID 0000.0001) %MON trcstat_ptracer01_sd         =   0.0000000000000E+00
(PID.TID 0000.0001) %MON trcstat_ptracer01_del2       =   0.0000000000000E+00
(PID.TID 0000.0001) %MON trcstat_ptracer02_max        =   0.0000000000000E+00
(PID.TID 0000.0001) %MON trcstat_ptracer02_min        =   0.0000000000000E+00
(PID.TID 0000.0001) %MON trcstat_ptracer02_mean       =   0.0000000000000E+00
(PID.TID 0000.0001) %MON trcstat_ptracer02_sd         =   0.0000000000000E+00
(PID.TID 0000.0001) %MON trcstat_ptracer02_del2       =   0.0000000000000E+00
(PID.TID 0000.0001) // =======================================================
(PID.TID 0000.0001) // End MONITOR ptracer field statistics
(PID.TID 0000.0001) // =======================================================
(PID.TID 0000.0001) // =======================================================
(PID.TID 0000.0001) // Begin MONITOR EXF statistics
(PID.TID 0000.0001) // =======================================================
(PID.TID 0000.0001) %MON exf_tsnumber                 =              15812100
(PID.TID 0000.0001) %MON exf_time_sec                 =   1.2649680000000E+09
(PID.TID 0000.0001) %MON exf_ustress_max              =   1.0004989857236E+00
(PID.TID 0000.0001) %MON exf_ustress_min              =  -3.5099515201385E-01
(PID.TID 0000.0001) %MON exf_ustress_mean             =   1.6252892075864E-01
(PID.TID 0000.0001) %MON exf_ustress_sd               =   1.8435357105917E-01
(PID.TID 0000.0001) %MON exf_ustress_del2             =   1.1755920580714E-06
(PID.TID 0000.0001) %MON exf_vstress_max              =   1.2595915493071E+00
(PID.TID 0000.0001) %MON exf_vstress_min              =  -8.2459591471732E-01
(PID.TID 0000.0001) %MON exf_vstress_mean             =  -7.6435844243864E-03
(PID.TID 0000.0001) %MON exf_vstress_sd               =   2.0865235049713E-01
(PID.TID 0000.0001) %MON exf_vstress_del2             =   1.1518969452861E-06
(PID.TID 0000.0001) %MON exf_hflux_max                =   1.3590763583708E+03
(PID.TID 0000.0001) %MON exf_hflux_min                =  -4.4191645356887E+02
(PID.TID 0000.0001) %MON exf_hflux_mean               =   2.1335467750427E+02
(PID.TID 0000.0001) %MON exf_hflux_sd                 =   2.0484324197771E+02
(PID.TID 0000.0001) %MON exf_hflux_del2               =   9.1160452778113E-02
(PID.TID 0000.0001) %MON exf_sflux_max                =   2.9760568450846E-07
(PID.TID 0000.0001) %MON exf_sflux_min                =  -2.1266268654050E-06
(PID.TID 0000.0001) %MON exf_sflux_mean               =  -1.4252478880280E-08
(PID.TID 0000.0001) %MON exf_sflux_sd                 =   2.2402771699566E-07
(PID.TID 0000.0001) %MON exf_sflux_del2               =   7.0188989376824E-11
(PID.TID 0000.0001) %MON exf_uwind_max                =   2.0361016788272E+01
(PID.TID 0000.0001) %MON exf_uwind_min                =  -1.4120105841589E+01
(PID.TID 0000.0001) %MON exf_uwind_mean               =   6.7985395946644E+00
(PID.TID 0000.0001) %MON exf_uwind_sd                 =   5.7688597343625E+00
(PID.TID 0000.0001) %MON exf_uwind_del2               =   2.7552815958436E-03
(PID.TID 0000.0001) %MON exf_vwind_max                =   2.2314231483447E+01
(PID.TID 0000.0001) %MON exf_vwind_min                =  -1.7657596359117E+01
(PID.TID 0000.0001) %MON exf_vwind_mean               =  -4.5004667195643E-02
(PID.TID 0000.0001) %MON exf_vwind_sd                 =   7.9927772404615E+00
(PID.TID 0000.0001) %MON exf_vwind_del2               =   2.4599044810685E-03
(PID.TID 0000.0001) %MON exf_wspeed_max               =   2.3503085713722E+01
(PID.TID 0000.0001) %MON exf_wspeed_min               =   4.9080385415650E-03
(PID.TID 0000.0001) %MON exf_wspeed_mean              =   1.1198144661422E+01
(PID.TID 0000.0001) %MON exf_wspeed_sd                =   4.2412206771800E+00
(PID.TID 0000.0001) %MON exf_wspeed_del2              =   3.6933476600461E-03
(PID.TID 0000.0001) %MON exf_atemp_max                =   2.9726104510865E+02
(PID.TID 0000.0001) %MON exf_atemp_min                =   2.6944949424753E+02
(PID.TID 0000.0001) %MON exf_atemp_mean               =   2.8902942632624E+02
(PID.TID 0000.0001) %MON exf_atemp_sd                 =   5.0579166454696E+00
(PID.TID 0000.0001) %MON exf_atemp_del2               =   5.0536533223889E-03
(PID.TID 0000.0001) %MON exf_aqh_max                  =   1.5204024186669E-02
(PID.TID 0000.0001) %MON exf_aqh_min                  =   1.1725247755191E-03
(PID.TID 0000.0001) %MON exf_aqh_mean                 =   8.7172442014993E-03
(PID.TID 0000.0001) %MON exf_aqh_sd                   =   2.8277764630538E-03
(PID.TID 0000.0001) %MON exf_aqh_del2                 =   2.7909088615542E-06
(PID.TID 0000.0001) %MON exf_lwflux_max               =   1.8737602000770E+02
(PID.TID 0000.0001) %MON exf_lwflux_min               =  -2.0701858804570E+01
(PID.TID 0000.0001) %MON exf_lwflux_mean              =   6.4372989635696E+01
(PID.TID 0000.0001) %MON exf_lwflux_sd                =   3.2147185061308E+01
(PID.TID 0000.0001) %MON exf_lwflux_del2              =   2.1954123049919E-02
(PID.TID 0000.0001) %MON exf_evap_max                 =   3.9817267214520E-07
(PID.TID 0000.0001) %MON exf_evap_min                 =  -1.0697213019284E-07
(PID.TID 0000.0001) %MON exf_evap_mean                =   7.4338870062968E-08
(PID.TID 0000.0001) %MON exf_evap_sd                  =   6.4203564669331E-08
(PID.TID 0000.0001) %MON exf_evap_del2                =   2.9976062373254E-11
(PID.TID 0000.0001) %MON exf_precip_max               =   2.1638754056973E-06
(PID.TID 0000.0001) %MON exf_precip_min               =   0.0000000000000E+00
(PID.TID 0000.0001) %MON exf_precip_mean              =   8.6984304308778E-08
(PID.TID 0000.0001) %MON exf_precip_sd                =   2.0850818241699E-07
(PID.TID 0000.0001) %MON exf_precip_del2              =   7.0845080997763E-11
(PID.TID 0000.0001) %MON exf_swflux_max               =   0.0000000000000E+00
(PID.TID 0000.0001) %MON exf_swflux_min               =  -5.0542079662069E+02
(PID.TID 0000.0001) %MON exf_swflux_mean              =  -7.7127359593228E+01
(PID.TID 0000.0001) %MON exf_swflux_sd                =   1.0637115839019E+02
(PID.TID 0000.0001) %MON exf_swflux_del2              =   3.9473126286994E-02
(PID.TID 0000.0001) %MON exf_swdown_max               =   5.5304030775826E+02
(PID.TID 0000.0001) %MON exf_swdown_min               =   0.0000000000000E+00
(PID.TID 0000.0001) %MON exf_swdown_mean              =   8.4846021861317E+01
(PID.TID 0000.0001) %MON exf_swdown_sd                =   1.1686699414112E+02
(PID.TID 0000.0001) %MON exf_swdown_del2              =   4.3399059272911E-02
(PID.TID 0000.0001) %MON exf_lwdown_max               =   4.1361135652283E+02
(PID.TID 0000.0001) %MON exf_lwdown_min               =   1.8705600214261E+02
(PID.TID 0000.0001) %MON exf_lwdown_mean              =   3.3985271819511E+02
(PID.TID 0000.0001) %MON exf_lwdown_sd                =   3.6578040497637E+01
(PID.TID 0000.0001) %MON exf_lwdown_del2              =   1.0430680265824E-01
(PID.TID 0000.0001) %MON exf_apressure_max            =   1.0261585884975E+05
(PID.TID 0000.0001) %MON exf_apressure_min            =   9.7957045666352E+04
(PID.TID 0000.0001) %MON exf_apressure_mean           =   1.0124540488639E+05
(PID.TID 0000.0001) %MON exf_apressure_sd             =   1.0157888712607E+03
(PID.TID 0000.0001) %MON exf_apressure_del2           =   3.0935107679501E+01
(PID.TID 0000.0001) %MON exf_runoff_max               =   4.6633690723924E-08
(PID.TID 0000.0001) %MON exf_runoff_min               =   0.0000000000000E+00
(PID.TID 0000.0001) %MON exf_runoff_mean              =   1.6070446344693E-09
(PID.TID 0000.0001) %MON exf_runoff_sd                =   5.4409705936606E-09
(PID.TID 0000.0001) %MON exf_runoff_del2              =   1.7602788524736E-12
(PID.TID 0000.0001) // =======================================================
(PID.TID 0000.0001) // End MONITOR EXF statistics
(PID.TID 0000.0001) // =======================================================
 cg2d: Sum(rhs),rhsMax =   9.36813900308917E+04  7.08266785041618E-02
 cg2d: Sum(rhs),rhsMax =   9.35398870966641E+04  7.04027843467959E-02
 cg2d: Sum(rhs),rhsMax =   9.33832847311915E+04  6.99703857117270E-02
 cg2d: Sum(rhs),rhsMax =   9.32116023284129E+04  6.95294396500427E-02
 cg2d: Sum(rhs),rhsMax =   9.30248612440726E+04  6.90799131600822E-02
 cg2d: Sum(rhs),rhsMax =   9.28230847926825E+04  6.86217867163605E-02
 cg2d: Sum(rhs),rhsMax =   9.26062982442822E+04  6.81550540717110E-02
 cg2d: Sum(rhs),rhsMax =   9.23745288208622E+04  6.76797205543017E-02
 cg2d: Sum(rhs),rhsMax =   9.21278056926075E+04  6.71958014796336E-02
 cg2d: Sum(rhs),rhsMax =   9.18661599737955E+04  6.67033222164763E-02
 cg2d: Sum(rhs),rhsMax =   9.15896247185120E+04  6.62023200661921E-02
 cg2d: Sum(rhs),rhsMax =   9.12982349160294E+04  6.56928476597696E-02
 cg2d: Sum(rhs),rhsMax =   9.09920274860090E+04  6.51749770097825E-02
 cg2d: Sum(rhs),rhsMax =   9.06710412733517E+04  6.46488026013074E-02
 cg2d: Sum(rhs),rhsMax =   9.03353170428930E+04  6.41144419437503E-02
 cg2d: Sum(rhs),rhsMax =   8.99848974737390E+04  6.35720334036610E-02
 cg2d: Sum(rhs),rhsMax =   8.96198271534430E+04  6.30217323667854E-02
 cg2d: Sum(rhs),rhsMax =   8.92401525718351E+04  6.24637074949709E-02
 cg2d: Sum(rhs),rhsMax =   8.88459221146964E+04  6.18981383202892E-02
 cg2d: Sum(rhs),rhsMax =   8.84371860570747E+04  6.13252146221483E-02
 cg2d: Sum(rhs),rhsMax =   8.80139965564611E+04  6.07451378986090E-02
 cg2d: Sum(rhs),rhsMax =   8.75764076456033E+04  6.01581208976879E-02
 cg2d: Sum(rhs),rhsMax =   8.71244752251821E+04  5.95643878963034E-02
 cg2d: Sum(rhs),rhsMax =   8.66582570561300E+04  5.89641750959766E-02
 cg2d: Sum(rhs),rhsMax =   8.61778127518174E+04  5.83577308529228E-02
 cg2d: Sum(rhs),rhsMax =   8.56832037698734E+04  5.77453158296704E-02
 cg2d: Sum(rhs),rhsMax =   8.51744934038915E+04  5.71272055323870E-02
 cg2d: Sum(rhs),rhsMax =   8.46517467747617E+04  5.65036812588157E-02
 cg2d: Sum(rhs),rhsMax =   8.41150308218924E+04  5.58750301889891E-02
 cg2d: Sum(rhs),rhsMax =   8.35644142940651E+04  5.52415461848131E-02
 cg2d: Sum(rhs),rhsMax =   8.29999677401817E+04  5.46035268260801E-02
 cg2d: Sum(rhs),rhsMax =   8.24217634996393E+04  5.39612683810488E-02
 cg2d: Sum(rhs),rhsMax =   8.18298756926137E+04  5.33150612863949E-02
 cg2d: Sum(rhs),rhsMax =   8.12243802099659E+04  5.26651885541017E-02
 cg2d: Sum(rhs),rhsMax =   8.06053547030577E+04  5.20119261498695E-02
 cg2d: Sum(rhs),rhsMax =   7.99728785732003E+04  5.13555435481894E-02
 cg2d: Sum(rhs),rhsMax =   7.93270329610148E+04  5.06963033883792E-02
 cg2d: Sum(rhs),rhsMax =   7.86679007354234E+04  5.00344611707237E-02
 cg2d: Sum(rhs),rhsMax =   7.79955664825584E+04  4.93702658270306E-02
 cg2d: Sum(rhs),rhsMax =   7.73101164943120E+04  4.87039611118103E-02
 cg2d: Sum(rhs),rhsMax =   7.66116387567973E+04  4.80357868447959E-02
 cg2d: Sum(rhs),rhsMax =   7.59002229384584E+04  4.73659799051217E-02
 cg2d: Sum(rhs),rhsMax =   7.51759603781011E+04  4.66947736341387E-02
 cg2d: Sum(rhs),rhsMax =   7.44389440725619E+04  4.60223966498125E-02
 cg2d: Sum(rhs),rhsMax =   7.36892686643154E+04  4.53490717364783E-02
(PID.TID 0000.0001)      cg2d_init_res =   6.61843187538780E-01
(PID.TID 0000.0001)      cg2d_iters(min,last) =      -1     150
(PID.TID 0000.0001)      cg2d_last_res =   2.01407865966651E-11
(PID.TID 0000.0001) // =======================================================
(PID.TID 0000.0001) // Begin MONITOR dynamic field statistics
(PID.TID 0000.0001) // =======================================================
(PID.TID 0000.0001) %MON time_tsnumber                =              15812145
(PID.TID 0000.0001) %MON time_secondsf                =   1.2649716000000E+09
(PID.TID 0000.0001) %MON dynstat_eta_max              =   1.0202461198944E+00
(PID.TID 0000.0001) %MON dynstat_eta_min              =  -2.3750283760327E+00
(PID.TID 0000.0001) %MON dynstat_eta_mean             =  -2.7848776249215E-01
(PID.TID 0000.0001) %MON dynstat_eta_sd               =   4.6202770217109E-01
(PID.TID 0000.0001) %MON dynstat_eta_del2             =   1.0403713654814E-06
(PID.TID 0000.0001) %MON dynstat_uvel_max             =   2.6502733896171E+00
(PID.TID 0000.0001) %MON dynstat_uvel_min             =  -2.5878672236452E+00
(PID.TID 0000.0001) %MON dynstat_uvel_mean            =  -1.0375357658355E-02
(PID.TID 0000.0001) %MON dynstat_uvel_sd              =   9.3722988189561E-02
(PID.TID 0000.0001) %MON dynstat_uvel_del2            =   1.9723177500853E-06
(PID.TID 0000.0001) %MON dynstat_vvel_max             =   3.0985421550326E+00
(PID.TID 0000.0001) %MON dynstat_vvel_min             =  -2.9036133251508E+00
(PID.TID 0000.0001) %MON dynstat_vvel_mean            =  -1.6620780284208E-03
(PID.TID 0000.0001) %MON dynstat_vvel_sd              =   8.6593153447541E-02
(PID.TID 0000.0001) %MON dynstat_vvel_del2            =   1.8531193495330E-06
(PID.TID 0000.0001) %MON dynstat_wvel_max             =   4.2544887925266E-02
(PID.TID 0000.0001) %MON dynstat_wvel_min             =  -3.0485883098619E-02
(PID.TID 0000.0001) %MON dynstat_wvel_mean            =   1.9278719050396E-05
(PID.TID 0000.0001) %MON dynstat_wvel_sd              =   1.6471345551126E-03
(PID.TID 0000.0001) %MON dynstat_wvel_del2            =   9.7753253439919E-08
(PID.TID 0000.0001) %MON dynstat_theta_max            =   2.4969186026685E+01
(PID.TID 0000.0001) %MON dynstat_theta_min            =  -2.5378328207428E+00
(PID.TID 0000.0001) %MON dynstat_theta_mean           =   5.5836297819509E+00
(PID.TID 0000.0001) %MON dynstat_theta_sd             =   4.6770422347792E+00
(PID.TID 0000.0001) %MON dynstat_theta_del2           =   7.4117340887772E-06
(PID.TID 0000.0001) %MON dynstat_salt_max             =   8.9582463444652E+01
(PID.TID 0000.0001) %MON dynstat_salt_min             =   2.0155985056674E+00
(PID.TID 0000.0001) %MON dynstat_salt_mean            =   3.5191461850067E+01
(PID.TID 0000.0001) %MON dynstat_salt_sd              =   4.5290971749127E-01
(PID.TID 0000.0001) %MON dynstat_salt_del2            =   1.4877910243689E-06
(PID.TID 0000.0001) %MON dynstat_sst_max              =   2.4953702289986E+01
(PID.TID 0000.0001) %MON dynstat_sst_min              =  -2.5378328207428E+00
(PID.TID 0000.0001) %MON dynstat_sst_mean             =   1.7715007543717E+01
(PID.TID 0000.0001) %MON dynstat_sst_sd               =   3.4056987907931E+00
(PID.TID 0000.0001) %MON dynstat_sst_del2             =   9.2959152668973E-05
(PID.TID 0000.0001) %MON dynstat_sss_max              =   8.9581569740548E+01
(PID.TID 0000.0001) %MON dynstat_sss_min              =   2.0155985056674E+00
(PID.TID 0000.0001) %MON dynstat_sss_mean             =   3.6425466105942E+01
(PID.TID 0000.0001) %MON dynstat_sss_sd               =   4.5415730547907E-01
(PID.TID 0000.0001) %MON dynstat_sss_del2             =   1.7763310188087E-05
(PID.TID 0000.0001) %MON forcing_qnet_max             =   1.5081093057127E+03
(PID.TID 0000.0001) %MON forcing_qnet_min             =  -4.5916769665770E+02
(PID.TID 0000.0001) %MON forcing_qnet_mean            =   2.5956206642885E+02
(PID.TID 0000.0001) %MON forcing_qnet_sd              =   2.2813732992097E+02
(PID.TID 0000.0001) %MON forcing_qnet_del2            =   6.0613561922207E-03
(PID.TID 0000.0001) %MON forcing_qsw_max              =   0.0000000000000E+00
(PID.TID 0000.0001) %MON forcing_qsw_min              =  -3.4253551571531E+02
(PID.TID 0000.0001) %MON forcing_qsw_mean             =  -3.2707921247037E+01
(PID.TID 0000.0001) %MON forcing_qsw_sd               =   6.2494834700687E+01
(PID.TID 0000.0001) %MON forcing_qsw_del2             =   4.3016612129447E-05
(PID.TID 0000.0001) %MON forcing_empmr_max            =   2.9482615017634E-04
(PID.TID 0000.0001) %MON forcing_empmr_min            =  -2.2062676965941E-03
(PID.TID 0000.0001) %MON forcing_empmr_mean           =  -1.2961251535192E-05
(PID.TID 0000.0001) %MON forcing_empmr_sd             =   2.2049912854766E-04
(PID.TID 0000.0001) %MON forcing_empmr_del2           =   1.8094467626552E-09
(PID.TID 0000.0001) %MON forcing_fu_max               =   1.0079259210883E+00
(PID.TID 0000.0001) %MON forcing_fu_min               =  -4.3680898085529E-01
(PID.TID 0000.0001) %MON forcing_fu_mean              =   1.6318325612843E-01
(PID.TID 0000.0001) %MON forcing_fu_sd                =   1.8211575533900E-01
(PID.TID 0000.0001) %MON forcing_fu_del2              =   1.0510592303135E-06
(PID.TID 0000.0001) %MON forcing_fv_max               =   1.0438943875083E+00
(PID.TID 0000.0001) %MON forcing_fv_min               =  -8.1107339004842E-01
(PID.TID 0000.0001) %MON forcing_fv_mean              =  -1.0584485743993E-02
(PID.TID 0000.0001) %MON forcing_fv_sd                =   2.1160856713321E-01
(PID.TID 0000.0001) %MON forcing_fv_del2              =   1.0331150049689E-06
(PID.TID 0000.0001) %MON trAdv_CFL_u_max              =   8.9803192009115E-02
(PID.TID 0000.0001) %MON trAdv_CFL_v_max              =   1.0700893366671E-01
(PID.TID 0000.0001) %MON trAdv_CFL_w_max              =   3.2750687614533E-01
(PID.TID 0000.0001) %MON advcfl_uvel_max              =   8.9803191514396E-02
(PID.TID 0000.0001) %MON advcfl_vvel_max              =   1.0702169708111E-01
(PID.TID 0000.0001) %MON advcfl_wvel_max              =   3.3446022508058E-01
(PID.TID 0000.0001) %MON advcfl_W_hf_max              =   3.4381575585206E-01
(PID.TID 0000.0001) %MON pe_b_mean                    =  -6.3654237726572E-03
(PID.TID 0000.0001) %MON ke_max                       =   4.8771997806278E+00
(PID.TID 0000.0001) %MON ke_mean                      =   8.1522708116981E-03
(PID.TID 0000.0001) %MON ke_vol                       =   4.6123795034297E+16
(PID.TID 0000.0001) %MON vort_r_min                   =  -9.9275687312810E-04
(PID.TID 0000.0001) %MON vort_r_max                   =   1.0013303286194E-03
(PID.TID 0000.0001) %MON vort_a_mean                  =   8.2145901140428E-05
(PID.TID 0000.0001) %MON vort_a_sd                    =   1.4063317390433E-05
(PID.TID 0000.0001) %MON vort_p_mean                  =   8.4437931846980E-05
(PID.TID 0000.0001) %MON vort_p_sd                    =   3.4026628730793E-05
(PID.TID 0000.0001) %MON surfExpan_theta_mean         =   6.5285465201564E-04
(PID.TID 0000.0001) %MON surfExpan_salt_mean          =   1.2929111124848E-03
(PID.TID 0000.0001) // =======================================================
(PID.TID 0000.0001) // End MONITOR dynamic field statistics
(PID.TID 0000.0001) // =======================================================
(PID.TID 0000.0001) // =======================================================
(PID.TID 0000.0001) // Begin OBCS MONITOR field statistics
(PID.TID 0000.0001) // =======================================================
(PID.TID 0000.0001) %MON obc_E_uVel_max               =  -1.7486185484016E-01
(PID.TID 0000.0001) %MON obc_E_uVel_min               =  -4.9904475828348E-01
(PID.TID 0000.0001) %MON obc_E_uVel_mean              =  -2.7567471085780E-01
(PID.TID 0000.0001) %MON obc_E_uVel_sd                =   6.9507814937670E-02
(PID.TID 0000.0001) %MON obc_E_uVel_Int               =  -1.8813285358803E+06
(PID.TID 0000.0001) %MON obc_N_vVel_max               =   1.9011703434603E-01
(PID.TID 0000.0001) %MON obc_N_vVel_min               =  -7.1736647149468E-01
(PID.TID 0000.0001) %MON obc_N_vVel_mean              =  -1.3684458388576E-02
(PID.TID 0000.0001) %MON obc_N_vVel_sd                =   3.9742697151235E-02
(PID.TID 0000.0001) %MON obc_N_vVel_Int               =  -1.9527235917388E+08
(PID.TID 0000.0001) %MON obc_S_vVel_max               =   1.2479834445057E+00
(PID.TID 0000.0001) %MON obc_S_vVel_min               =  -1.5460494375836E-01
(PID.TID 0000.0001) %MON obc_S_vVel_mean              =   6.7592547905932E-03
(PID.TID 0000.0001) %MON obc_S_vVel_sd                =   2.7283660137156E-02
(PID.TID 0000.0001) %MON obc_S_vVel_Int               =   2.0553433162824E+08
(PID.TID 0000.0001) %MON obc_E_theta_max              =   1.5981519699097E+01
(PID.TID 0000.0001) %MON obc_E_theta_min              =   1.3104037284851E+01
(PID.TID 0000.0001) %MON obc_E_theta_mean             =   1.4974089986960E+01
(PID.TID 0000.0001) %MON obc_E_theta_sd               =   6.0075505804650E-01
(PID.TID 0000.0001) %MON obc_N_theta_max              =   1.5721092224121E+01
(PID.TID 0000.0001) %MON obc_N_theta_min              =   9.7373789548874E-01
(PID.TID 0000.0001) %MON obc_N_theta_mean             =   5.3443110148828E+00
(PID.TID 0000.0001) %MON obc_N_theta_sd               =   3.5834807335781E+00
(PID.TID 0000.0001) %MON obc_S_theta_max              =   2.4979528427124E+01
(PID.TID 0000.0001) %MON obc_S_theta_min              =   1.5124862194061E+00
(PID.TID 0000.0001) %MON obc_S_theta_mean             =   5.4273114502690E+00
(PID.TID 0000.0001) %MON obc_S_theta_sd               =   5.1694562801555E+00
(PID.TID 0000.0001) %MON obc_E_salt_max               =   3.8703720092773E+01
(PID.TID 0000.0001) %MON obc_E_salt_min               =   3.6289142608643E+01
(PID.TID 0000.0001) %MON obc_E_salt_mean              =   3.6643778075730E+01
(PID.TID 0000.0001) %MON obc_E_salt_sd                =   5.5037722650442E-01
(PID.TID 0000.0001) %MON obc_N_salt_max               =   3.6066974639893E+01
(PID.TID 0000.0001) %MON obc_N_salt_min               =   3.2878395080566E+01
(PID.TID 0000.0001) %MON obc_N_salt_mean              =   3.5117165924185E+01
(PID.TID 0000.0001) %MON obc_N_salt_sd                =   3.1541903364831E-01
(PID.TID 0000.0001) %MON obc_S_salt_max               =   3.7600940704346E+01
(PID.TID 0000.0001) %MON obc_S_salt_min               =   3.4853485107422E+01
(PID.TID 0000.0001) %MON obc_S_salt_mean              =   3.5185630803177E+01
(PID.TID 0000.0001) %MON obc_S_salt_sd                =   4.9502018312198E-01
(PID.TID 0000.0001) // =======================================================
(PID.TID 0000.0001) // End OBCS MONITOR field statistics
(PID.TID 0000.0001) // =======================================================
(PID.TID 0000.0001) // =======================================================
(PID.TID 0000.0001) // Begin MONITOR ptracer field statistics
(PID.TID 0000.0001) // =======================================================
(PID.TID 0000.0001) %MON trcstat_ptracer01_max        =   0.0000000000000E+00
(PID.TID 0000.0001) %MON trcstat_ptracer01_min        =   0.0000000000000E+00
(PID.TID 0000.0001) %MON trcstat_ptracer01_mean       =   0.0000000000000E+00
(PID.TID 0000.0001) %MON trcstat_ptracer01_sd         =   0.0000000000000E+00
(PID.TID 0000.0001) %MON trcstat_ptracer01_del2       =   0.0000000000000E+00
(PID.TID 0000.0001) %MON trcstat_ptracer02_max        =   0.0000000000000E+00
(PID.TID 0000.0001) %MON trcstat_ptracer02_min        =   0.0000000000000E+00
(PID.TID 0000.0001) %MON trcstat_ptracer02_mean       =   0.0000000000000E+00
(PID.TID 0000.0001) %MON trcstat_ptracer02_sd         =   0.0000000000000E+00
(PID.TID 0000.0001) %MON trcstat_ptracer02_del2       =   0.0000000000000E+00
(PID.TID 0000.0001) // =======================================================
(PID.TID 0000.0001) // End MONITOR ptracer field statistics
(PID.TID 0000.0001) // =======================================================
(PID.TID 0000.0001) // =======================================================
(PID.TID 0000.0001) // Begin MONITOR EXF statistics
(PID.TID 0000.0001) // =======================================================
(PID.TID 0000.0001) %MON exf_tsnumber                 =              15812145
(PID.TID 0000.0001) %MON exf_time_sec                 =   1.2649716000000E+09
(PID.TID 0000.0001) %MON exf_ustress_max              =   1.0107844187562E+00
(PID.TID 0000.0001) %MON exf_ustress_min              =  -4.4099969620144E-01
(PID.TID 0000.0001) %MON exf_ustress_mean             =   1.6320099456810E-01
(PID.TID 0000.0001) %MON exf_ustress_sd               =   1.8225559711916E-01
(PID.TID 0000.0001) %MON exf_ustress_del2             =   1.1482381924855E-06
(PID.TID 0000.0001) %MON exf_vstress_max              =   1.0689585101587E+00
(PID.TID 0000.0001) %MON exf_vstress_min              =  -8.1134865243367E-01
(PID.TID 0000.0001) %MON exf_vstress_mean             =  -1.0596222829169E-02
(PID.TID 0000.0001) %MON exf_vstress_sd               =   2.1189092283221E-01
(PID.TID 0000.0001) %MON exf_vstress_del2             =   1.1375529503166E-06
(PID.TID 0000.0001) %MON exf_hflux_max                =   1.4791249021502E+03
(PID.TID 0000.0001) %MON exf_hflux_min                =  -4.3916521008382E+02
(PID.TID 0000.0001) %MON exf_hflux_mean               =   2.5999489015302E+02
(PID.TID 0000.0001) %MON exf_hflux_sd                 =   2.2159532055346E+02
(PID.TID 0000.0001) %MON exf_hflux_del2               =   1.0498622914360E-01
(PID.TID 0000.0001) %MON exf_sflux_max                =   2.9466082970160E-07
(PID.TID 0000.0001) %MON exf_sflux_min                =  -2.2124584442988E-06
(PID.TID 0000.0001) %MON exf_sflux_mean               =  -1.2893290295195E-08
(PID.TID 0000.0001) %MON exf_sflux_sd                 =   2.2031799268637E-07
(PID.TID 0000.0001) %MON exf_sflux_del2               =   6.8652352587413E-11
(PID.TID 0000.0001) %MON exf_uwind_max                =   2.0329915652248E+01
(PID.TID 0000.0001) %MON exf_uwind_min                =  -1.3494189955060E+01
(PID.TID 0000.0001) %MON exf_uwind_mean               =   6.8123859971914E+00
(PID.TID 0000.0001) %MON exf_uwind_sd                 =   5.6416775737337E+00
(PID.TID 0000.0001) %MON exf_uwind_del2               =   2.7325458279291E-03
(PID.TID 0000.0001) %MON exf_vwind_max                =   2.1092958414416E+01
(PID.TID 0000.0001) %MON exf_vwind_min                =  -1.7588948469086E+01
(PID.TID 0000.0001) %MON exf_vwind_mean               =  -1.7984760513274E-01
(PID.TID 0000.0001) %MON exf_vwind_sd                 =   8.0956676209428E+00
(PID.TID 0000.0001) %MON exf_vwind_del2               =   2.4929367867649E-03
(PID.TID 0000.0001) %MON exf_wspeed_max               =   2.2171573020033E+01
(PID.TID 0000.0001) %MON exf_wspeed_min               =   9.1844748858991E-03
(PID.TID 0000.0001) %MON exf_wspeed_mean              =   1.1206526684252E+01
(PID.TID 0000.0001) %MON exf_wspeed_sd                =   4.2688485433088E+00
(PID.TID 0000.0001) %MON exf_wspeed_del2              =   3.6986052174466E-03
(PID.TID 0000.0001) %MON exf_atemp_max                =   2.9732996814209E+02
(PID.TID 0000.0001) %MON exf_atemp_min                =   2.6919743430810E+02
(PID.TID 0000.0001) %MON exf_atemp_mean               =   2.8900922794687E+02
(PID.TID 0000.0001) %MON exf_atemp_sd                 =   5.0285298310330E+00
(PID.TID 0000.0001) %MON exf_atemp_del2               =   5.0450377453175E-03
(PID.TID 0000.0001) %MON exf_aqh_max                  =   1.5156337874382E-02
(PID.TID 0000.0001) %MON exf_aqh_min                  =   1.1594460544095E-03
(PID.TID 0000.0001) %MON exf_aqh_mean                 =   8.7086781679616E-03
(PID.TID 0000.0001) %MON exf_aqh_sd                   =   2.8307451971217E-03
(PID.TID 0000.0001) %MON exf_aqh_del2                 =   2.7885668965208E-06
(PID.TID 0000.0001) %MON exf_lwflux_max               =   1.8626144801177E+02
(PID.TID 0000.0001) %MON exf_lwflux_min               =  -2.9084335232963E+01
(PID.TID 0000.0001) %MON exf_lwflux_mean              =   6.4450528462497E+01
(PID.TID 0000.0001) %MON exf_lwflux_sd                =   3.2612416408518E+01
(PID.TID 0000.0001) %MON exf_lwflux_del2              =   2.2049598394000E-02
(PID.TID 0000.0001) %MON exf_evap_max                 =   3.9381365161009E-07
(PID.TID 0000.0001) %MON exf_evap_min                 =  -1.0991728636216E-07
(PID.TID 0000.0001) %MON exf_evap_mean                =   7.4669950196466E-08
(PID.TID 0000.0001) %MON exf_evap_sd                  =   6.5115903686095E-08
(PID.TID 0000.0001) %MON exf_evap_del2                =   3.0248971043958E-11
(PID.TID 0000.0001) %MON exf_precip_max               =   2.1518345545163E-06
(PID.TID 0000.0001) %MON exf_precip_min               =   0.0000000000000E+00
(PID.TID 0000.0001) %MON exf_precip_mean              =   8.5956195857192E-08
(PID.TID 0000.0001) %MON exf_precip_sd                =   2.0406172828243E-07
(PID.TID 0000.0001) %MON exf_precip_del2              =   6.9075831053177E-11
(PID.TID 0000.0001) %MON exf_swflux_max               =   0.0000000000000E+00
(PID.TID 0000.0001) %MON exf_swflux_min               =  -3.3842854554961E+02
(PID.TID 0000.0001) %MON exf_swflux_mean              =  -3.1958290867934E+01
(PID.TID 0000.0001) %MON exf_swflux_sd                =   6.1407438727090E+01
(PID.TID 0000.0001) %MON exf_swflux_del2              =   2.0726735971597E-02
(PID.TID 0000.0001) %MON exf_swdown_max               =   3.7031030119247E+02
(PID.TID 0000.0001) %MON exf_swdown_min               =   0.0000000000000E+00
(PID.TID 0000.0001) %MON exf_swdown_mean              =   3.5137790348730E+01
(PID.TID 0000.0001) %MON exf_swdown_sd                =   6.7436725370956E+01
(PID.TID 0000.0001) %MON exf_swdown_del2              =   2.2772557687527E-02
(PID.TID 0000.0001) %MON exf_lwdown_max               =   4.1289231312301E+02
(PID.TID 0000.0001) %MON exf_lwdown_min               =   1.8598191334951E+02
(PID.TID 0000.0001) %MON exf_lwdown_mean              =   3.3972150665616E+02
(PID.TID 0000.0001) %MON exf_lwdown_sd                =   3.7075436285330E+01
(PID.TID 0000.0001) %MON exf_lwdown_del2              =   1.0427592508659E-01
(PID.TID 0000.0001) %MON exf_apressure_max            =   1.0264152414886E+05
(PID.TID 0000.0001) %MON exf_apressure_min            =   9.7945684316599E+04
(PID.TID 0000.0001) %MON exf_apressure_mean           =   1.0125060369114E+05
(PID.TID 0000.0001) %MON exf_apressure_sd             =   1.0370282525665E+03
(PID.TID 0000.0001) %MON exf_apressure_del2           =   3.0936616610973E+01
(PID.TID 0000.0001) %MON exf_runoff_max               =   4.6633690723924E-08
(PID.TID 0000.0001) %MON exf_runoff_min               =   0.0000000000000E+00
(PID.TID 0000.0001) %MON exf_runoff_mean              =   1.6070446344693E-09
(PID.TID 0000.0001) %MON exf_runoff_sd                =   5.4409705936606E-09
(PID.TID 0000.0001) %MON exf_runoff_del2              =   1.7602788524736E-12
(PID.TID 0000.0001) // =======================================================
(PID.TID 0000.0001) // End MONITOR EXF statistics
(PID.TID 0000.0001) // =======================================================
 cg2d: Sum(rhs),rhsMax =   7.29270304287239E+04  4.46750144081056E-02
 cg2d: Sum(rhs),rhsMax =   7.21523272612135E+04  4.40004630338353E-02
 cg2d: Sum(rhs),rhsMax =   7.13652586641117E+04  4.33256571263198E-02
 cg2d: Sum(rhs),rhsMax =   7.05659257334165E+04  4.26508482832689E-02
 cg2d: Sum(rhs),rhsMax =   6.97544311452148E+04  4.19763102069201E-02
 cg2d: Sum(rhs),rhsMax =   6.89308791420532E+04  4.13023316769771E-02
 cg2d: Sum(rhs),rhsMax =   6.80953755189630E+04  4.06292201159910E-02
 cg2d: Sum(rhs),rhsMax =   6.72480276094194E+04  3.99572985713957E-02
 cg2d: Sum(rhs),rhsMax =   6.63889442709849E+04  3.92868980354068E-02
 cg2d: Sum(rhs),rhsMax =   6.55182358708823E+04  3.86183441571844E-02
 cg2d: Sum(rhs),rhsMax =   6.46360142712474E+04  3.79519399903472E-02
 cg2d: Sum(rhs),rhsMax =   6.37423928143289E+04  3.72879482363796E-02
 cg2d: Sum(rhs),rhsMax =   6.28374863073705E+04  3.66265748790243E-02
 cg2d: Sum(rhs),rhsMax =   6.19214110074294E+04  3.59679530132930E-02
 cg2d: Sum(rhs),rhsMax =   6.09942846059004E+04  3.53121458801938E-02
 cg2d: Sum(rhs),rhsMax =   6.00562262129781E+04  3.46591296737980E-02
 cg2d: Sum(rhs),rhsMax =   5.91073563418162E+04  3.40087938150714E-02
 cg2d: Sum(rhs),rhsMax =   5.81477968926404E+04  3.33609723657580E-02
 cg2d: Sum(rhs),rhsMax =   5.71776711365691E+04  3.27154501543815E-02
 cg2d: Sum(rhs),rhsMax =   5.61971036993699E+04  3.20719783438492E-02
 cg2d: Sum(rhs),rhsMax =   5.52062205449536E+04  3.14303093932179E-02
 cg2d: Sum(rhs),rhsMax =   5.42051489587975E+04  3.07901979999025E-02
 cg2d: Sum(rhs),rhsMax =   5.31940175311066E+04  3.01514110381004E-02
 cg2d: Sum(rhs),rhsMax =   5.21729561399171E+04  2.95137411664290E-02
 cg2d: Sum(rhs),rhsMax =   5.11420959339429E+04  2.88770157635429E-02
 cg2d: Sum(rhs),rhsMax =   5.01015693153558E+04  2.82411010616422E-02
 cg2d: Sum(rhs),rhsMax =   4.90515099223344E+04  2.76058936551557E-02
 cg2d: Sum(rhs),rhsMax =   4.79920526115399E+04  2.69713107756853E-02
 cg2d: Sum(rhs),rhsMax =   4.69233334403606E+04  2.63372820532443E-02
 cg2d: Sum(rhs),rhsMax =   4.58454896490971E+04  2.57037406090948E-02
 cg2d: Sum(rhs),rhsMax =   4.47586596429252E+04  2.50706151282012E-02
 cg2d: Sum(rhs),rhsMax =   4.36629829737871E+04  2.44378237720153E-02
 cg2d: Sum(rhs),rhsMax =   4.25586003220836E+04  2.38052696988952E-02
 cg2d: Sum(rhs),rhsMax =   4.14456534782937E+04  2.31728386506766E-02
 cg2d: Sum(rhs),rhsMax =   4.03242853243943E+04  2.25403964860246E-02
 cg2d: Sum(rhs),rhsMax =   3.91946398152188E+04  2.19077869054628E-02
 cg2d: Sum(rhs),rhsMax =   3.80568619596235E+04  2.12748313344993E-02
 cg2d: Sum(rhs),rhsMax =   3.69110978015871E+04  2.06413281481347E-02
 cg2d: Sum(rhs),rhsMax =   3.57574944011355E+04  2.00070689738900E-02
 cg2d: Sum(rhs),rhsMax =   3.45961998152004E+04  1.93718507880109E-02
 cg2d: Sum(rhs),rhsMax =   3.34273630783048E+04  1.87355799330466E-02
 cg2d: Sum(rhs),rhsMax =   3.22511341831906E+04  1.80980786279047E-02
 cg2d: Sum(rhs),rhsMax =   3.10676640612832E+04  1.74588352503145E-02
 cg2d: Sum(rhs),rhsMax =   2.98771045630901E+04  1.68178548691994E-02
 cg2d: Sum(rhs),rhsMax =   2.86796084384563E+04  1.61753021450886E-02
(PID.TID 0000.0001)      cg2d_init_res =   9.21235964344349E-01
(PID.TID 0000.0001)      cg2d_iters(min,last) =      -1     153
(PID.TID 0000.0001)      cg2d_last_res =   1.84282467053193E-11
(PID.TID 0000.0001) // =======================================================
(PID.TID 0000.0001) // Begin MONITOR dynamic field statistics
(PID.TID 0000.0001) // =======================================================
(PID.TID 0000.0001) %MON time_tsnumber                =              15812190
(PID.TID 0000.0001) %MON time_secondsf                =   1.2649752000000E+09
(PID.TID 0000.0001) %MON dynstat_eta_max              =   1.2148650511488E+00
(PID.TID 0000.0001) %MON dynstat_eta_min              =  -2.7124207435300E+00
(PID.TID 0000.0001) %MON dynstat_eta_mean             =  -1.0838647374234E-01
(PID.TID 0000.0001) %MON dynstat_eta_sd               =   4.6103377934973E-01
(PID.TID 0000.0001) %MON dynstat_eta_del2             =   1.0402489394546E-06
(PID.TID 0000.0001) %MON dynstat_uvel_max             =   2.6615263639541E+00
(PID.TID 0000.0001) %MON dynstat_uvel_min             =  -2.6059268266497E+00
(PID.TID 0000.0001) %MON dynstat_uvel_mean            =  -3.4559550253501E-03
(PID.TID 0000.0001) %MON dynstat_uvel_sd              =   9.3742785154744E-02
(PID.TID 0000.0001) %MON dynstat_uvel_del2            =   1.9553612450305E-06
(PID.TID 0000.0001) %MON dynstat_vvel_max             =   3.1432265189519E+00
(PID.TID 0000.0001) %MON dynstat_vvel_min             =  -2.9256065688557E+00
(PID.TID 0000.0001) %MON dynstat_vvel_mean            =   5.9247851984492E-03
(PID.TID 0000.0001) %MON dynstat_vvel_sd              =   8.6463603138582E-02
(PID.TID 0000.0001) %MON dynstat_vvel_del2            =   1.8327927234883E-06
(PID.TID 0000.0001) %MON dynstat_wvel_max             =   4.4533960700334E-02
(PID.TID 0000.0001) %MON dynstat_wvel_min             =  -3.0567646355546E-02
(PID.TID 0000.0001) %MON dynstat_wvel_mean            =   3.2635217928838E-05
(PID.TID 0000.0001) %MON dynstat_wvel_sd              =   1.6536650143930E-03
(PID.TID 0000.0001) %MON dynstat_wvel_del2            =   9.7404797968218E-08
(PID.TID 0000.0001) %MON dynstat_theta_max            =   2.4968176158074E+01
(PID.TID 0000.0001) %MON dynstat_theta_min            =  -2.5492045412024E+00
(PID.TID 0000.0001) %MON dynstat_theta_mean           =   5.5830665664362E+00
(PID.TID 0000.0001) %MON dynstat_theta_sd             =   4.6762840837579E+00
(PID.TID 0000.0001) %MON dynstat_theta_del2           =   7.4194481678437E-06
(PID.TID 0000.0001) %MON dynstat_salt_max             =   8.9583689309433E+01
(PID.TID 0000.0001) %MON dynstat_salt_min             =   2.0156194354094E+00
(PID.TID 0000.0001) %MON dynstat_salt_mean            =   3.5191408909677E+01
(PID.TID 0000.0001) %MON dynstat_salt_sd              =   4.5283434899032E-01
(PID.TID 0000.0001) %MON dynstat_salt_del2            =   1.4861687625538E-06
(PID.TID 0000.0001) %MON dynstat_sst_max              =   2.4954071851839E+01
(PID.TID 0000.0001) %MON dynstat_sst_min              =  -2.5492045412024E+00
(PID.TID 0000.0001) %MON dynstat_sst_mean             =   1.7708099580173E+01
(PID.TID 0000.0001) %MON dynstat_sst_sd               =   3.4017183159172E+00
(PID.TID 0000.0001) %MON dynstat_sst_del2             =   9.2060058000708E-05
(PID.TID 0000.0001) %MON dynstat_sss_max              =   8.9583689309433E+01
(PID.TID 0000.0001) %MON dynstat_sss_min              =   2.0156194354094E+00
(PID.TID 0000.0001) %MON dynstat_sss_mean             =   3.6425366280039E+01
(PID.TID 0000.0001) %MON dynstat_sss_sd               =   4.5386610837332E-01
(PID.TID 0000.0001) %MON dynstat_sss_del2             =   1.7463389905692E-05
(PID.TID 0000.0001) %MON forcing_qnet_max             =   1.6800906122720E+03
(PID.TID 0000.0001) %MON forcing_qnet_min             =  -5.0963397387501E+02
(PID.TID 0000.0001) %MON forcing_qnet_mean            =   2.8261712796595E+02
(PID.TID 0000.0001) %MON forcing_qnet_sd              =   2.5366390803327E+02
(PID.TID 0000.0001) %MON forcing_qnet_del2            =   5.9549405185045E-03
(PID.TID 0000.0001) %MON forcing_qsw_max              =   0.0000000000000E+00
(PID.TID 0000.0001) %MON forcing_qsw_min              =  -1.5875518561115E+02
(PID.TID 0000.0001) %MON forcing_qsw_mean             =  -8.5016860185775E+00
(PID.TID 0000.0001) %MON forcing_qsw_sd               =   2.2282055448123E+01
(PID.TID 0000.0001) %MON forcing_qsw_del2             =   1.4594381288395E-05
(PID.TID 0000.0001) %MON forcing_empmr_max            =   3.4256374434839E-04
(PID.TID 0000.0001) %MON forcing_empmr_min            =  -2.2087947103526E-03
(PID.TID 0000.0001) %MON forcing_empmr_mean           =  -1.0210753052388E-05
(PID.TID 0000.0001) %MON forcing_empmr_sd             =   2.1260408724187E-04
(PID.TID 0000.0001) %MON forcing_empmr_del2           =   1.7447946466625E-09
(PID.TID 0000.0001) %MON forcing_fu_max               =   9.7495898711351E-01
(PID.TID 0000.0001) %MON forcing_fu_min               =  -5.4326126079358E-01
(PID.TID 0000.0001) %MON forcing_fu_mean              =   1.5610964281752E-01
(PID.TID 0000.0001) %MON forcing_fu_sd                =   1.7144744923911E-01
(PID.TID 0000.0001) %MON forcing_fu_del2              =   1.0047784850108E-06
(PID.TID 0000.0001) %MON forcing_fv_max               =   8.6984842025095E-01
(PID.TID 0000.0001) %MON forcing_fv_min               =  -8.3705457424034E-01
(PID.TID 0000.0001) %MON forcing_fv_mean              =  -1.4651400456274E-02
(PID.TID 0000.0001) %MON forcing_fv_sd                =   2.0761101956599E-01
(PID.TID 0000.0001) %MON forcing_fv_del2              =   1.0099356600868E-06
(PID.TID 0000.0001) %MON trAdv_CFL_u_max              =   9.0228517854869E-02
(PID.TID 0000.0001) %MON trAdv_CFL_v_max              =   1.0855213994722E-01
(PID.TID 0000.0001) %MON trAdv_CFL_w_max              =   3.8891767513728E-01
(PID.TID 0000.0001) %MON advcfl_uvel_max              =   9.0228517357823E-02
(PID.TID 0000.0001) %MON advcfl_vvel_max              =   1.0856506690484E-01
(PID.TID 0000.0001) %MON advcfl_wvel_max              =   3.9539963638957E-01
(PID.TID 0000.0001) %MON advcfl_W_hf_max              =   4.0332450900868E-01
(PID.TID 0000.0001) %MON pe_b_mean                    =  -2.3126045701618E-03
(PID.TID 0000.0001) %MON ke_max                       =   4.9409496941225E+00
(PID.TID 0000.0001) %MON ke_mean                      =   8.1114171496934E-03
(PID.TID 0000.0001) %MON ke_vol                       =   4.6123795034297E+16
(PID.TID 0000.0001) %MON vort_r_min                   =  -1.1534184698886E-03
(PID.TID 0000.0001) %MON vort_r_max                   =   9.2782549410163E-04
(PID.TID 0000.0001) %MON vort_a_mean                  =   8.2145904147277E-05
(PID.TID 0000.0001) %MON vort_a_sd                    =   1.4044992548822E-05
(PID.TID 0000.0001) %MON vort_p_mean                  =   8.4437934937726E-05
(PID.TID 0000.0001) %MON vort_p_sd                    =   3.3993635716804E-05
(PID.TID 0000.0001) %MON surfExpan_theta_mean         =   9.8960776570831E-04
(PID.TID 0000.0001) %MON surfExpan_salt_mean          =   2.0614665871456E-03
(PID.TID 0000.0001) // =======================================================
(PID.TID 0000.0001) // End MONITOR dynamic field statistics
(PID.TID 0000.0001) // =======================================================
(PID.TID 0000.0001) // =======================================================
(PID.TID 0000.0001) // Begin OBCS MONITOR field statistics
(PID.TID 0000.0001) // =======================================================
(PID.TID 0000.0001) %MON obc_E_uVel_max               =  -3.2401222544222E-01
(PID.TID 0000.0001) %MON obc_E_uVel_min               =  -6.7729685949019E-01
(PID.TID 0000.0001) %MON obc_E_uVel_mean              =  -4.4953778544058E-01
(PID.TID 0000.0001) %MON obc_E_uVel_sd                =   6.8968390454964E-02
(PID.TID 0000.0001) %MON obc_E_uVel_Int               =  -3.0678485562720E+06
(PID.TID 0000.0001) %MON obc_N_vVel_max               =   3.5299836997225E-01
(PID.TID 0000.0001) %MON obc_N_vVel_min               =  -3.2542345018506E-01
(PID.TID 0000.0001) %MON obc_N_vVel_mean              =  -9.9164049443251E-03
(PID.TID 0000.0001) %MON obc_N_vVel_sd                =   3.8132645424016E-02
(PID.TID 0000.0001) %MON obc_N_vVel_Int               =  -1.4150357529813E+08
(PID.TID 0000.0001) %MON obc_S_vVel_max               =   1.2470952407831E+00
(PID.TID 0000.0001) %MON obc_S_vVel_min               =  -1.5330949535162E-01
(PID.TID 0000.0001) %MON obc_S_vVel_mean              =   1.6399173168107E-02
(PID.TID 0000.0001) %MON obc_S_vVel_sd                =   2.7449376479156E-02
(PID.TID 0000.0001) %MON obc_S_vVel_Int               =   4.9866341790422E+08
(PID.TID 0000.0001) %MON obc_E_theta_max              =   1.5981519699097E+01
(PID.TID 0000.0001) %MON obc_E_theta_min              =   1.3104037284851E+01
(PID.TID 0000.0001) %MON obc_E_theta_mean             =   1.4974089986960E+01
(PID.TID 0000.0001) %MON obc_E_theta_sd               =   6.0075505804650E-01
(PID.TID 0000.0001) %MON obc_N_theta_max              =   1.5721092224121E+01
(PID.TID 0000.0001) %MON obc_N_theta_min              =   9.7373789548874E-01
(PID.TID 0000.0001) %MON obc_N_theta_mean             =   5.3443110148828E+00
(PID.TID 0000.0001) %MON obc_N_theta_sd               =   3.5834807335781E+00
(PID.TID 0000.0001) %MON obc_S_theta_max              =   2.4979528427124E+01
(PID.TID 0000.0001) %MON obc_S_theta_min              =   1.5124862194061E+00
(PID.TID 0000.0001) %MON obc_S_theta_mean             =   5.4273114502690E+00
(PID.TID 0000.0001) %MON obc_S_theta_sd               =   5.1694562801555E+00
(PID.TID 0000.0001) %MON obc_E_salt_max               =   3.8703720092773E+01
(PID.TID 0000.0001) %MON obc_E_salt_min               =   3.6289142608643E+01
(PID.TID 0000.0001) %MON obc_E_salt_mean              =   3.6643778075730E+01
(PID.TID 0000.0001) %MON obc_E_salt_sd                =   5.5037722650442E-01
(PID.TID 0000.0001) %MON obc_N_salt_max               =   3.6066974639893E+01
(PID.TID 0000.0001) %MON obc_N_salt_min               =   3.2878395080566E+01
(PID.TID 0000.0001) %MON obc_N_salt_mean              =   3.5117165924185E+01
(PID.TID 0000.0001) %MON obc_N_salt_sd                =   3.1541903364831E-01
(PID.TID 0000.0001) %MON obc_S_salt_max               =   3.7600940704346E+01
(PID.TID 0000.0001) %MON obc_S_salt_min               =   3.4853485107422E+01
(PID.TID 0000.0001) %MON obc_S_salt_mean              =   3.5185630803177E+01
(PID.TID 0000.0001) %MON obc_S_salt_sd                =   4.9502018312198E-01
(PID.TID 0000.0001) // =======================================================
(PID.TID 0000.0001) // End OBCS MONITOR field statistics
(PID.TID 0000.0001) // =======================================================
(PID.TID 0000.0001) // =======================================================
(PID.TID 0000.0001) // Begin MONITOR ptracer field statistics
(PID.TID 0000.0001) // =======================================================
(PID.TID 0000.0001) %MON trcstat_ptracer01_max        =   0.0000000000000E+00
(PID.TID 0000.0001) %MON trcstat_ptracer01_min        =   0.0000000000000E+00
(PID.TID 0000.0001) %MON trcstat_ptracer01_mean       =   0.0000000000000E+00
(PID.TID 0000.0001) %MON trcstat_ptracer01_sd         =   0.0000000000000E+00
(PID.TID 0000.0001) %MON trcstat_ptracer01_del2       =   0.0000000000000E+00
(PID.TID 0000.0001) %MON trcstat_ptracer02_max        =   0.0000000000000E+00
(PID.TID 0000.0001) %MON trcstat_ptracer02_min        =   0.0000000000000E+00
(PID.TID 0000.0001) %MON trcstat_ptracer02_mean       =   0.0000000000000E+00
(PID.TID 0000.0001) %MON trcstat_ptracer02_sd         =   0.0000000000000E+00
(PID.TID 0000.0001) %MON trcstat_ptracer02_del2       =   0.0000000000000E+00
(PID.TID 0000.0001) // =======================================================
(PID.TID 0000.0001) // End MONITOR ptracer field statistics
(PID.TID 0000.0001) // =======================================================
(PID.TID 0000.0001) // =======================================================
(PID.TID 0000.0001) // Begin MONITOR EXF statistics
(PID.TID 0000.0001) // =======================================================
(PID.TID 0000.0001) %MON exf_tsnumber                 =              15812190
(PID.TID 0000.0001) %MON exf_time_sec                 =   1.2649752000000E+09
(PID.TID 0000.0001) %MON exf_ustress_max              =   9.7744860793514E-01
(PID.TID 0000.0001) %MON exf_ustress_min              =  -5.4600686692915E-01
(PID.TID 0000.0001) %MON exf_ustress_mean             =   1.5597433860705E-01
(PID.TID 0000.0001) %MON exf_ustress_sd               =   1.7143653149302E-01
(PID.TID 0000.0001) %MON exf_ustress_del2             =   1.0986593474361E-06
(PID.TID 0000.0001) %MON exf_vstress_max              =   8.7810448379842E-01
(PID.TID 0000.0001) %MON exf_vstress_min              =  -8.3917386965809E-01
(PID.TID 0000.0001) %MON exf_vstress_mean             =  -1.4706525438540E-02
(PID.TID 0000.0001) %MON exf_vstress_sd               =   2.0776547981482E-01
(PID.TID 0000.0001) %MON exf_vstress_del2             =   1.1113196901224E-06
(PID.TID 0000.0001) %MON exf_hflux_max                =   1.6500264770009E+03
(PID.TID 0000.0001) %MON exf_hflux_min                =  -4.3346948354468E+02
(PID.TID 0000.0001) %MON exf_hflux_mean               =   2.8250591036099E+02
(PID.TID 0000.0001) %MON exf_hflux_sd                 =   2.4666811465091E+02
(PID.TID 0000.0001) %MON exf_hflux_del2               =   1.1495914031064E-01
(PID.TID 0000.0001) %MON exf_sflux_max                =   3.4357345612241E-07
(PID.TID 0000.0001) %MON exf_sflux_min                =  -2.2187218094914E-06
(PID.TID 0000.0001) %MON exf_sflux_mean               =  -1.0108791653769E-08
(PID.TID 0000.0001) %MON exf_sflux_sd                 =   2.1240622168747E-07
(PID.TID 0000.0001) %MON exf_sflux_del2               =   6.5764548881228E-11
(PID.TID 0000.0001) %MON exf_uwind_max                =   1.9634821437731E+01
(PID.TID 0000.0001) %MON exf_uwind_min                =  -1.4373025733225E+01
(PID.TID 0000.0001) %MON exf_uwind_mean               =   6.6667838915602E+00
(PID.TID 0000.0001) %MON exf_uwind_sd                 =   5.5088238591456E+00
(PID.TID 0000.0001) %MON exf_uwind_del2               =   2.6670794730507E-03
(PID.TID 0000.0001) %MON exf_vwind_max                =   1.9910649597344E+01
(PID.TID 0000.0001) %MON exf_vwind_min                =  -1.7944401688803E+01
(PID.TID 0000.0001) %MON exf_vwind_mean               =  -2.9965838831768E-01
(PID.TID 0000.0001) %MON exf_vwind_sd                 =   8.1078205605240E+00
(PID.TID 0000.0001) %MON exf_vwind_del2               =   2.4989909761240E-03
(PID.TID 0000.0001) %MON exf_wspeed_max               =   2.1808973992930E+01
(PID.TID 0000.0001) %MON exf_wspeed_min               =   1.5525467190517E-02
(PID.TID 0000.0001) %MON exf_wspeed_mean              =   1.1098448540248E+01
(PID.TID 0000.0001) %MON exf_wspeed_sd                =   4.1766179091074E+00
(PID.TID 0000.0001) %MON exf_wspeed_del2              =   3.6546644950030E-03
(PID.TID 0000.0001) %MON exf_atemp_max                =   2.9740315415917E+02
(PID.TID 0000.0001) %MON exf_atemp_min                =   2.6739537952369E+02
(PID.TID 0000.0001) %MON exf_atemp_mean               =   2.8901284123298E+02
(PID.TID 0000.0001) %MON exf_atemp_sd                 =   4.9772080762243E+00
(PID.TID 0000.0001) %MON exf_atemp_del2               =   5.0411740624834E-03
(PID.TID 0000.0001) %MON exf_aqh_max                  =   1.5162752862971E-02
(PID.TID 0000.0001) %MON exf_aqh_min                  =   1.1190544438480E-03
(PID.TID 0000.0001) %MON exf_aqh_mean                 =   8.7030484326664E-03
(PID.TID 0000.0001) %MON exf_aqh_sd                   =   2.8080582910587E-03
(PID.TID 0000.0001) %MON exf_aqh_del2                 =   2.7843090609464E-06
(PID.TID 0000.0001) %MON exf_lwflux_max               =   1.8478723300014E+02
(PID.TID 0000.0001) %MON exf_lwflux_min               =  -2.5170062254580E+01
(PID.TID 0000.0001) %MON exf_lwflux_mean              =   6.4407027012521E+01
(PID.TID 0000.0001) %MON exf_lwflux_sd                =   3.2846409316801E+01
(PID.TID 0000.0001) %MON exf_lwflux_del2              =   2.2084650442949E-02
(PID.TID 0000.0001) %MON exf_evap_max                 =   4.0930979284809E-07
(PID.TID 0000.0001) %MON exf_evap_min                 =  -1.1270439384149E-07
(PID.TID 0000.0001) %MON exf_evap_mean                =   7.4230914864433E-08
(PID.TID 0000.0001) %MON exf_evap_sd                  =   6.4994289570299E-08
(PID.TID 0000.0001) %MON exf_evap_del2                =   3.0113607533523E-11
(PID.TID 0000.0001) %MON exf_precip_max               =   2.1651276116495E-06
(PID.TID 0000.0001) %MON exf_precip_min               =   0.0000000000000E+00
(PID.TID 0000.0001) %MON exf_precip_mean              =   8.2732661883733E-08
(PID.TID 0000.0001) %MON exf_precip_sd                =   1.9512191631275E-07
(PID.TID 0000.0001) %MON exf_precip_del2              =   6.5743253028200E-11
(PID.TID 0000.0001) %MON exf_swflux_max               =   0.0000000000000E+00
(PID.TID 0000.0001) %MON exf_swflux_min               =  -1.5473321904664E+02
(PID.TID 0000.0001) %MON exf_swflux_mean              =  -8.1951820243262E+00
(PID.TID 0000.0001) %MON exf_swflux_sd                =   2.1554242386250E+01
(PID.TID 0000.0001) %MON exf_swflux_del2              =   6.8689683470041E-03
(PID.TID 0000.0001) %MON exf_swdown_max               =   1.6929352892494E+02
(PID.TID 0000.0001) %MON exf_swdown_min               =   0.0000000000000E+00
(PID.TID 0000.0001) %MON exf_swdown_mean              =   9.0023112514420E+00
(PID.TID 0000.0001) %MON exf_swdown_sd                =   2.3649712386638E+01
(PID.TID 0000.0001) %MON exf_swdown_del2              =   7.5388987514865E-03
(PID.TID 0000.0001) %MON exf_lwdown_max               =   4.1416941902350E+02
(PID.TID 0000.0001) %MON exf_lwdown_min               =   1.8590486180240E+02
(PID.TID 0000.0001) %MON exf_lwdown_mean              =   3.3972701153613E+02
(PID.TID 0000.0001) %MON exf_lwdown_sd                =   3.7494306834756E+01
(PID.TID 0000.0001) %MON exf_lwdown_del2              =   1.0427440684964E-01
(PID.TID 0000.0001) %MON exf_apressure_max            =   1.0267704407330E+05
(PID.TID 0000.0001) %MON exf_apressure_min            =   9.8033023926684E+04
(PID.TID 0000.0001) %MON exf_apressure_mean           =   1.0125653499391E+05
(PID.TID 0000.0001) %MON exf_apressure_sd             =   1.0526387148723E+03
(PID.TID 0000.0001) %MON exf_apressure_del2           =   3.0938451278564E+01
(PID.TID 0000.0001) %MON exf_runoff_max               =   4.6633690723924E-08
(PID.TID 0000.0001) %MON exf_runoff_min               =   0.0000000000000E+00
(PID.TID 0000.0001) %MON exf_runoff_mean              =   1.6070446344693E-09
(PID.TID 0000.0001) %MON exf_runoff_sd                =   5.4409705936606E-09
(PID.TID 0000.0001) %MON exf_runoff_del2              =   1.7602788524736E-12
(PID.TID 0000.0001) // =======================================================
(PID.TID 0000.0001) // End MONITOR EXF statistics
(PID.TID 0000.0001) // =======================================================
 cg2d: Sum(rhs),rhsMax =   2.74753293167564E+04  1.55308400114378E-02
 cg2d: Sum(rhs),rhsMax =   2.62644216869402E+04  1.48843304206978E-02
 cg2d: Sum(rhs),rhsMax =   2.50470408775243E+04  1.42356719699291E-02
 cg2d: Sum(rhs),rhsMax =   2.38233430364524E+04  1.35847890195499E-02
 cg2d: Sum(rhs),rhsMax =   2.25934851108882E+04  1.29316019394396E-02
 cg2d: Sum(rhs),rhsMax =   2.13576248268992E+04  1.22760231515117E-02
 cg2d: Sum(rhs),rhsMax =   2.01159206690742E+04  1.16179715052386E-02
 cg2d: Sum(rhs),rhsMax =   1.88685318600313E+04  1.09573876383207E-02
 cg2d: Sum(rhs),rhsMax =   1.76156183398673E+04  1.02942423459569E-02
 cg2d: Sum(rhs),rhsMax =   1.63573407455114E+04  9.62854412265598E-03
 cg2d: Sum(rhs),rhsMax =   1.50938603900087E+04  8.96033293004977E-03
 cg2d: Sum(rhs),rhsMax =   1.38253392417324E+04  8.28968359901048E-03
 cg2d: Sum(rhs),rhsMax =   1.25519399035223E+04  7.61671248070743E-03
 cg2d: Sum(rhs),rhsMax =   1.12738255917513E+04  6.94158647931826E-03
 cg2d: Sum(rhs),rhsMax =   9.99116011533289E+03  6.26452674130087E-03
 cg2d: Sum(rhs),rhsMax =   8.70410785466471E+03  5.58580726240961E-03
 cg2d: Sum(rhs),rhsMax =   7.41283374050342E+03  4.90575017221951E-03
 cg2d: Sum(rhs),rhsMax =   6.11750323279545E+03  4.22471837714854E-03
 cg2d: Sum(rhs),rhsMax =   4.81828229944481E+03  3.54310395582157E-03
 cg2d: Sum(rhs),rhsMax =   3.51533739502747E+03  2.86131522250957E-03
 cg2d: Sum(rhs),rhsMax =   2.20883543946265E+03  2.17976618304552E-03
 cg2d: Sum(rhs),rhsMax =   8.98943796635426E+02  1.49886827143140E-03
 cg2d: Sum(rhs),rhsMax =  -4.14169747032039E+02  1.98570280995678E-03
 cg2d: Sum(rhs),rhsMax =  -1.73033700403396E+03  2.68785766258132E-03
 cg2d: Sum(rhs),rhsMax =  -3.04938940729109E+03  3.38704875222578E-03
 cg2d: Sum(rhs),rhsMax =  -4.37115803168315E+03  4.08211455275449E-03
 cg2d: Sum(rhs),rhsMax =  -5.69547361562223E+03  4.77195456954844E-03
 cg2d: Sum(rhs),rhsMax =  -7.02216658264840E+03  5.45556217517106E-03
 cg2d: Sum(rhs),rhsMax =  -8.35106706306771E+03  6.13205173391612E-03
 cg2d: Sum(rhs),rhsMax =  -9.68200491559254E+03  6.80067813882877E-03
 cg2d: Sum(rhs),rhsMax =  -1.10148097490273E+04  7.46084747256318E-03
 cg2d: Sum(rhs),rhsMax =  -1.23493109439569E+04  8.11211822051703E-03
 cg2d: Sum(rhs),rhsMax =  -1.36853376744637E+04  8.75419322963861E-03
 cg2d: Sum(rhs),rhsMax =  -1.50227189298440E+04  9.38690332464523E-03
 cg2d: Sum(rhs),rhsMax =  -1.63612835363611E+04  1.00101841195687E-02
 cg2d: Sum(rhs),rhsMax =  -1.77008601789708E+04  1.06240480701436E-02
 cg2d: Sum(rhs),rhsMax =  -1.90412774230934E+04  1.12285540551178E-02
 cg2d: Sum(rhs),rhsMax =  -2.03823637363525E+04  1.18237769356841E-02
 cg2d: Sum(rhs),rhsMax =  -2.17239475103474E+04  1.24097794398194E-02
 cg2d: Sum(rhs),rhsMax =  -2.30658570823898E+04  1.29865884166612E-02
 cg2d: Sum(rhs),rhsMax =  -2.44079207572762E+04  1.35541770406012E-02
 cg2d: Sum(rhs),rhsMax =  -2.57499668290073E+04  1.41124539944726E-02
 cg2d: Sum(rhs),rhsMax =  -2.70918236025417E+04  1.46612600336311E-02
 cg2d: Sum(rhs),rhsMax =  -2.84333194155029E+04  1.52003716986294E-02
 cg2d: Sum(rhs),rhsMax =  -2.97742826598984E+04  1.57830215976153E-02
(PID.TID 0000.0001)      cg2d_init_res =   1.10452562732216E+00
(PID.TID 0000.0001)      cg2d_iters(min,last) =      -1     154
(PID.TID 0000.0001)      cg2d_last_res =   1.89332857281787E-11
(PID.TID 0000.0001) // =======================================================
(PID.TID 0000.0001) // Begin MONITOR dynamic field statistics
(PID.TID 0000.0001) // =======================================================
(PID.TID 0000.0001) %MON time_tsnumber                =              15812235
(PID.TID 0000.0001) %MON time_secondsf                =   1.2649788000000E+09
(PID.TID 0000.0001) %MON dynstat_eta_max              =   1.3749480184693E+00
(PID.TID 0000.0001) %MON dynstat_eta_min              =  -2.5579693362889E+00
(PID.TID 0000.0001) %MON dynstat_eta_mean             =   1.1252348555034E-01
(PID.TID 0000.0001) %MON dynstat_eta_sd               =   3.9390189659586E-01
(PID.TID 0000.0001) %MON dynstat_eta_del2             =   1.0724225841285E-06
(PID.TID 0000.0001) %MON dynstat_uvel_max             =   2.6880724098778E+00
(PID.TID 0000.0001) %MON dynstat_uvel_min             =  -2.6077582378299E+00
(PID.TID 0000.0001) %MON dynstat_uvel_mean            =   5.2345731944670E-03
(PID.TID 0000.0001) %MON dynstat_uvel_sd              =   9.3951807333079E-02
(PID.TID 0000.0001) %MON dynstat_uvel_del2            =   1.9407825331359E-06
(PID.TID 0000.0001) %MON dynstat_vvel_max             =   3.1380471541476E+00
(PID.TID 0000.0001) %MON dynstat_vvel_min             =  -2.8994435584865E+00
(PID.TID 0000.0001) %MON dynstat_vvel_mean            =   1.1993346435632E-02
(PID.TID 0000.0001) %MON dynstat_vvel_sd              =   8.6330437207545E-02
(PID.TID 0000.0001) %MON dynstat_vvel_del2            =   1.8167358762431E-06
(PID.TID 0000.0001) %MON dynstat_wvel_max             =   4.5343224746075E-02
(PID.TID 0000.0001) %MON dynstat_wvel_min             =  -3.0529441752548E-02
(PID.TID 0000.0001) %MON dynstat_wvel_mean            =   3.7437378394010E-05
(PID.TID 0000.0001) %MON dynstat_wvel_sd              =   1.6612268878005E-03
(PID.TID 0000.0001) %MON dynstat_wvel_del2            =   9.7317871135541E-08
(PID.TID 0000.0001) %MON dynstat_theta_max            =   2.4967578566232E+01
(PID.TID 0000.0001) %MON dynstat_theta_min            =  -2.5725097858530E+00
(PID.TID 0000.0001) %MON dynstat_theta_mean           =   5.5823807123520E+00
(PID.TID 0000.0001) %MON dynstat_theta_sd             =   4.6754326334290E+00
(PID.TID 0000.0001) %MON dynstat_theta_del2           =   7.4236132082925E-06
(PID.TID 0000.0001) %MON dynstat_salt_max             =   8.9585431040117E+01
(PID.TID 0000.0001) %MON dynstat_salt_min             =   2.0156355975195E+00
(PID.TID 0000.0001) %MON dynstat_salt_mean            =   3.5191343150203E+01
(PID.TID 0000.0001) %MON dynstat_salt_sd              =   4.5274546387881E-01
(PID.TID 0000.0001) %MON dynstat_salt_del2            =   1.4834126515115E-06
(PID.TID 0000.0001) %MON dynstat_sst_max              =   2.4953663921053E+01
(PID.TID 0000.0001) %MON dynstat_sst_min              =  -2.5725097858530E+00
(PID.TID 0000.0001) %MON dynstat_sst_mean             =   1.7702548972701E+01
(PID.TID 0000.0001) %MON dynstat_sst_sd               =   3.3982643599224E+00
(PID.TID 0000.0001) %MON dynstat_sst_del2             =   9.1312621741846E-05
(PID.TID 0000.0001) %MON dynstat_sss_max              =   8.9585431040117E+01
(PID.TID 0000.0001) %MON dynstat_sss_min              =   2.0156355975195E+00
(PID.TID 0000.0001) %MON dynstat_sss_mean             =   3.6425366539040E+01
(PID.TID 0000.0001) %MON dynstat_sss_sd               =   4.5345682895968E-01
(PID.TID 0000.0001) %MON dynstat_sss_del2             =   1.7257293142599E-05
(PID.TID 0000.0001) %MON forcing_qnet_max             =   1.6329447143235E+03
(PID.TID 0000.0001) %MON forcing_qnet_min             =  -5.4908586441171E+02
(PID.TID 0000.0001) %MON forcing_qnet_mean            =   2.9507975811111E+02
(PID.TID 0000.0001) %MON forcing_qnet_sd              =   2.6878384244132E+02
(PID.TID 0000.0001) %MON forcing_qnet_del2            =   6.0152530737513E-03
(PID.TID 0000.0001) %MON forcing_qsw_max              =   0.0000000000000E+00
(PID.TID 0000.0001) %MON forcing_qsw_min              =  -3.3560307098792E+01
(PID.TID 0000.0001) %MON forcing_qsw_mean             =  -6.7826143662461E-01
(PID.TID 0000.0001) %MON forcing_qsw_sd               =   3.1275659745023E+00
(PID.TID 0000.0001) %MON forcing_qsw_del2             =   2.4688189208269E-06
(PID.TID 0000.0001) %MON forcing_empmr_max            =   3.4667483721165E-04
(PID.TID 0000.0001) %MON forcing_empmr_min            =  -1.8984552892344E-03
(PID.TID 0000.0001) %MON forcing_empmr_mean           =  -6.0631146067885E-06
(PID.TID 0000.0001) %MON forcing_empmr_sd             =   2.0873045233260E-04
(PID.TID 0000.0001) %MON forcing_empmr_del2           =   1.7553517061732E-09
(PID.TID 0000.0001) %MON forcing_fu_max               =   9.4612772223418E-01
(PID.TID 0000.0001) %MON forcing_fu_min               =  -5.3502668334947E-01
(PID.TID 0000.0001) %MON forcing_fu_mean              =   1.5926559149817E-01
(PID.TID 0000.0001) %MON forcing_fu_sd                =   1.7159050060235E-01
(PID.TID 0000.0001) %MON forcing_fu_del2              =   1.0111434286375E-06
(PID.TID 0000.0001) %MON forcing_fv_max               =   9.7837239111803E-01
(PID.TID 0000.0001) %MON forcing_fv_min               =  -8.3479518892701E-01
(PID.TID 0000.0001) %MON forcing_fv_mean              =  -1.6085062558381E-02
(PID.TID 0000.0001) %MON forcing_fv_sd                =   2.1458985859720E-01
(PID.TID 0000.0001) %MON forcing_fv_del2              =   1.0089235720024E-06
(PID.TID 0000.0001) %MON trAdv_CFL_u_max              =   9.1106213272017E-02
(PID.TID 0000.0001) %MON trAdv_CFL_v_max              =   1.0837324876016E-01
(PID.TID 0000.0001) %MON trAdv_CFL_w_max              =   4.2648532525091E-01
(PID.TID 0000.0001) %MON advcfl_uvel_max              =   9.1106212770157E-02
(PID.TID 0000.0001) %MON advcfl_vvel_max              =   1.0838617490228E-01
(PID.TID 0000.0001) %MON advcfl_wvel_max              =   4.3359341400509E-01
(PID.TID 0000.0001) %MON advcfl_W_hf_max              =   4.4094245492043E-01
(PID.TID 0000.0001) %MON pe_b_mean                    =   2.9739336844457E-03
(PID.TID 0000.0001) %MON ke_max                       =   4.9888715189500E+00
(PID.TID 0000.0001) %MON ke_mean                      =   8.1811892531237E-03
(PID.TID 0000.0001) %MON ke_vol                       =   4.6123795034297E+16
(PID.TID 0000.0001) %MON vort_r_min                   =  -1.6352262355642E-03
(PID.TID 0000.0001) %MON vort_r_max                   =   1.2815428097906E-03
(PID.TID 0000.0001) %MON vort_a_mean                  =   8.2145906210102E-05
(PID.TID 0000.0001) %MON vort_a_sd                    =   1.4064640927761E-05
(PID.TID 0000.0001) %MON vort_p_mean                  =   8.4437937058108E-05
(PID.TID 0000.0001) %MON vort_p_sd                    =   3.4033853373240E-05
(PID.TID 0000.0001) %MON surfExpan_theta_mean         =   1.0755947148874E-03
(PID.TID 0000.0001) %MON surfExpan_salt_mean          =   2.3063827216932E-03
(PID.TID 0000.0001) // =======================================================
(PID.TID 0000.0001) // End MONITOR dynamic field statistics
(PID.TID 0000.0001) // =======================================================
(PID.TID 0000.0001) // =======================================================
(PID.TID 0000.0001) // Begin OBCS MONITOR field statistics
(PID.TID 0000.0001) // =======================================================
(PID.TID 0000.0001) %MON obc_E_uVel_max               =  -3.7115265771677E-01
(PID.TID 0000.0001) %MON obc_E_uVel_min               =  -7.3615853776975E-01
(PID.TID 0000.0001) %MON obc_E_uVel_mean              =  -5.0686947800702E-01
(PID.TID 0000.0001) %MON obc_E_uVel_sd                =   6.9506378529178E-02
(PID.TID 0000.0001) %MON obc_E_uVel_Int               =  -3.4591058787153E+06
(PID.TID 0000.0001) %MON obc_N_vVel_max               =   6.3291865660879E-01
(PID.TID 0000.0001) %MON obc_N_vVel_min               =  -2.5014692254767E-01
(PID.TID 0000.0001) %MON obc_N_vVel_mean              =  -3.4931484777221E-03
(PID.TID 0000.0001) %MON obc_N_vVel_sd                =   3.7082135317425E-02
(PID.TID 0000.0001) %MON obc_N_vVel_Int               =  -4.9845987675983E+07
(PID.TID 0000.0001) %MON obc_S_vVel_max               =   1.2435030624592E+00
(PID.TID 0000.0001) %MON obc_S_vVel_min               =  -1.5231262237238E-01
(PID.TID 0000.0001) %MON obc_S_vVel_mean              =   2.1934905890445E-02
(PID.TID 0000.0001) %MON obc_S_vVel_sd                =   2.8344472880437E-02
(PID.TID 0000.0001) %MON obc_S_vVel_Int               =   6.6699308743252E+08
(PID.TID 0000.0001) %MON obc_E_theta_max              =   1.5981519699097E+01
(PID.TID 0000.0001) %MON obc_E_theta_min              =   1.3104037284851E+01
(PID.TID 0000.0001) %MON obc_E_theta_mean             =   1.4974089986960E+01
(PID.TID 0000.0001) %MON obc_E_theta_sd               =   6.0075505804650E-01
(PID.TID 0000.0001) %MON obc_N_theta_max              =   1.5721092224121E+01
(PID.TID 0000.0001) %MON obc_N_theta_min              =   9.7373789548874E-01
(PID.TID 0000.0001) %MON obc_N_theta_mean             =   5.3443110148828E+00
(PID.TID 0000.0001) %MON obc_N_theta_sd               =   3.5834807335781E+00
(PID.TID 0000.0001) %MON obc_S_theta_max              =   2.4979528427124E+01
(PID.TID 0000.0001) %MON obc_S_theta_min              =   1.5124862194061E+00
(PID.TID 0000.0001) %MON obc_S_theta_mean             =   5.4273114502690E+00
(PID.TID 0000.0001) %MON obc_S_theta_sd               =   5.1694562801555E+00
(PID.TID 0000.0001) %MON obc_E_salt_max               =   3.8703720092773E+01
(PID.TID 0000.0001) %MON obc_E_salt_min               =   3.6289142608643E+01
(PID.TID 0000.0001) %MON obc_E_salt_mean              =   3.6643778075730E+01
(PID.TID 0000.0001) %MON obc_E_salt_sd                =   5.5037722650442E-01
(PID.TID 0000.0001) %MON obc_N_salt_max               =   3.6066974639893E+01
(PID.TID 0000.0001) %MON obc_N_salt_min               =   3.2878395080566E+01
(PID.TID 0000.0001) %MON obc_N_salt_mean              =   3.5117165924185E+01
(PID.TID 0000.0001) %MON obc_N_salt_sd                =   3.1541903364831E-01
(PID.TID 0000.0001) %MON obc_S_salt_max               =   3.7600940704346E+01
(PID.TID 0000.0001) %MON obc_S_salt_min               =   3.4853485107422E+01
(PID.TID 0000.0001) %MON obc_S_salt_mean              =   3.5185630803177E+01
(PID.TID 0000.0001) %MON obc_S_salt_sd                =   4.9502018312198E-01
(PID.TID 0000.0001) // =======================================================
(PID.TID 0000.0001) // End OBCS MONITOR field statistics
(PID.TID 0000.0001) // =======================================================
(PID.TID 0000.0001) // =======================================================
(PID.TID 0000.0001) // Begin MONITOR ptracer field statistics
(PID.TID 0000.0001) // =======================================================
(PID.TID 0000.0001) %MON trcstat_ptracer01_max        =   0.0000000000000E+00
(PID.TID 0000.0001) %MON trcstat_ptracer01_min        =   0.0000000000000E+00
(PID.TID 0000.0001) %MON trcstat_ptracer01_mean       =   0.0000000000000E+00
(PID.TID 0000.0001) %MON trcstat_ptracer01_sd         =   0.0000000000000E+00
(PID.TID 0000.0001) %MON trcstat_ptracer01_del2       =   0.0000000000000E+00
(PID.TID 0000.0001) %MON trcstat_ptracer02_max        =   0.0000000000000E+00
(PID.TID 0000.0001) %MON trcstat_ptracer02_min        =   0.0000000000000E+00
(PID.TID 0000.0001) %MON trcstat_ptracer02_mean       =   0.0000000000000E+00
(PID.TID 0000.0001) %MON trcstat_ptracer02_sd         =   0.0000000000000E+00
(PID.TID 0000.0001) %MON trcstat_ptracer02_del2       =   0.0000000000000E+00
(PID.TID 0000.0001) // =======================================================
(PID.TID 0000.0001) // End MONITOR ptracer field statistics
(PID.TID 0000.0001) // =======================================================
(PID.TID 0000.0001) // =======================================================
(PID.TID 0000.0001) // Begin MONITOR EXF statistics
(PID.TID 0000.0001) // =======================================================
(PID.TID 0000.0001) %MON exf_tsnumber                 =              15812235
(PID.TID 0000.0001) %MON exf_time_sec                 =   1.2649788000000E+09
(PID.TID 0000.0001) %MON exf_ustress_max              =   9.4691298247371E-01
(PID.TID 0000.0001) %MON exf_ustress_min              =  -5.3670522809803E-01
(PID.TID 0000.0001) %MON exf_ustress_mean             =   1.5933977600781E-01
(PID.TID 0000.0001) %MON exf_ustress_sd               =   1.7179666622278E-01
(PID.TID 0000.0001) %MON exf_ustress_del2             =   1.1075380892706E-06
(PID.TID 0000.0001) %MON exf_vstress_max              =   9.9157799242382E-01
(PID.TID 0000.0001) %MON exf_vstress_min              =  -8.3833612440766E-01
(PID.TID 0000.0001) %MON exf_vstress_mean             =  -1.6060292284281E-02
(PID.TID 0000.0001) %MON exf_vstress_sd               =   2.1496547671401E-01
(PID.TID 0000.0001) %MON exf_vstress_del2             =   1.1135460974467E-06
(PID.TID 0000.0001) %MON exf_hflux_max                =   1.5989517007483E+03
(PID.TID 0000.0001) %MON exf_hflux_min                =  -4.4449761430812E+02
(PID.TID 0000.0001) %MON exf_hflux_mean               =   2.9462810085940E+02
(PID.TID 0000.0001) %MON exf_hflux_sd                 =   2.6126080406342E+02
(PID.TID 0000.0001) %MON exf_hflux_del2               =   1.2062426880457E-01
(PID.TID 0000.0001) %MON exf_sflux_max                =   3.4648802441558E-07
(PID.TID 0000.0001) %MON exf_sflux_min                =  -1.8717955640568E-06
(PID.TID 0000.0001) %MON exf_sflux_mean               =  -5.9904901198722E-09
(PID.TID 0000.0001) %MON exf_sflux_sd                 =   2.0875788698687E-07
(PID.TID 0000.0001) %MON exf_sflux_del2               =   6.4568824370075E-11
(PID.TID 0000.0001) %MON exf_uwind_max                =   1.9413787520890E+01
(PID.TID 0000.0001) %MON exf_uwind_min                =  -1.3311312404213E+01
(PID.TID 0000.0001) %MON exf_uwind_mean               =   6.7172020901229E+00
(PID.TID 0000.0001) %MON exf_uwind_sd                 =   5.4224343113649E+00
(PID.TID 0000.0001) %MON exf_uwind_del2               =   2.6616400040703E-03
(PID.TID 0000.0001) %MON exf_vwind_max                =   2.0801569530405E+01
(PID.TID 0000.0001) %MON exf_vwind_min                =  -1.8925713524548E+01
(PID.TID 0000.0001) %MON exf_vwind_mean               =  -3.8173243003753E-01
(PID.TID 0000.0001) %MON exf_vwind_sd                 =   8.2973590192383E+00
(PID.TID 0000.0001) %MON exf_vwind_del2               =   2.5588052078101E-03
(PID.TID 0000.0001) %MON exf_wspeed_max               =   2.2107054233170E+01
(PID.TID 0000.0001) %MON exf_wspeed_min               =   1.1081771853427E-02
(PID.TID 0000.0001) %MON exf_wspeed_mean              =   1.1213543409320E+01
(PID.TID 0000.0001) %MON exf_wspeed_sd                =   4.2156764973368E+00
(PID.TID 0000.0001) %MON exf_wspeed_del2              =   3.6918979646565E-03
(PID.TID 0000.0001) %MON exf_atemp_max                =   2.9736658578265E+02
(PID.TID 0000.0001) %MON exf_atemp_min                =   2.6684200426045E+02
(PID.TID 0000.0001) %MON exf_atemp_mean               =   2.8896703224120E+02
(PID.TID 0000.0001) %MON exf_atemp_sd                 =   4.9484713072599E+00
(PID.TID 0000.0001) %MON exf_atemp_del2               =   5.0252885886480E-03
(PID.TID 0000.0001) %MON exf_aqh_max                  =   1.5143387466724E-02
(PID.TID 0000.0001) %MON exf_aqh_min                  =   1.0763293269345E-03
(PID.TID 0000.0001) %MON exf_aqh_mean                 =   8.6731031921013E-03
(PID.TID 0000.0001) %MON exf_aqh_sd                   =   2.8063624565767E-03
(PID.TID 0000.0001) %MON exf_aqh_del2                 =   2.7749801417732E-06
(PID.TID 0000.0001) %MON exf_lwflux_max               =   1.8341567928953E+02
(PID.TID 0000.0001) %MON exf_lwflux_min               =  -3.1677381955432E+01
(PID.TID 0000.0001) %MON exf_lwflux_mean              =   6.4941340309007E+01
(PID.TID 0000.0001) %MON exf_lwflux_sd                =   3.2878567886185E+01
(PID.TID 0000.0001) %MON exf_lwflux_del2              =   2.2253098878613E-02
(PID.TID 0000.0001) %MON exf_evap_max                 =   3.8836440735192E-07
(PID.TID 0000.0001) %MON exf_evap_min                 =  -1.2197014571045E-07
(PID.TID 0000.0001) %MON exf_evap_mean                =   7.5500301022414E-08
(PID.TID 0000.0001) %MON exf_evap_sd                  =   6.6000643925395E-08
(PID.TID 0000.0001) %MON exf_evap_del2                =   3.0620812627361E-11
(PID.TID 0000.0001) %MON exf_precip_max               =   1.8493942771983E-06
(PID.TID 0000.0001) %MON exf_precip_min               =   0.0000000000000E+00
(PID.TID 0000.0001) %MON exf_precip_mean              =   7.9883746507817E-08
(PID.TID 0000.0001) %MON exf_precip_sd                =   1.9018685923609E-07
(PID.TID 0000.0001) %MON exf_precip_del2              =   6.3982211849462E-11
(PID.TID 0000.0001) %MON exf_swflux_max               =   0.0000000000000E+00
(PID.TID 0000.0001) %MON exf_swflux_min               =  -3.2132216769888E+01
(PID.TID 0000.0001) %MON exf_swflux_mean              =  -6.4939943458637E-01
(PID.TID 0000.0001) %MON exf_swflux_sd                =   2.9944789003174E+00
(PID.TID 0000.0001) %MON exf_swflux_del2              =   9.0615273314346E-04
(PID.TID 0000.0001) %MON exf_swdown_max               =   3.5137689614256E+01
(PID.TID 0000.0001) %MON exf_swdown_min               =   0.0000000000000E+00
(PID.TID 0000.0001) %MON exf_swdown_mean              =   7.1196391252217E-01
(PID.TID 0000.0001) %MON exf_swdown_sd                =   3.2813567172213E+00
(PID.TID 0000.0001) %MON exf_swdown_del2              =   9.9303487706325E-04
(PID.TID 0000.0001) %MON exf_lwdown_max               =   4.1308592970330E+02
(PID.TID 0000.0001) %MON exf_lwdown_min               =   1.8235314525360E+02
(PID.TID 0000.0001) %MON exf_lwdown_mean              =   3.3914451563337E+02
(PID.TID 0000.0001) %MON exf_lwdown_sd                =   3.7725326886852E+01
(PID.TID 0000.0001) %MON exf_lwdown_del2              =   1.0408537672346E-01
(PID.TID 0000.0001) %MON exf_apressure_max            =   1.0267427263639E+05
(PID.TID 0000.0001) %MON exf_apressure_min            =   9.8021665881309E+04
(PID.TID 0000.0001) %MON exf_apressure_mean           =   1.0125387478006E+05
(PID.TID 0000.0001) %MON exf_apressure_sd             =   1.0753904320569E+03
(PID.TID 0000.0001) %MON exf_apressure_del2           =   3.0937698358146E+01
(PID.TID 0000.0001) %MON exf_runoff_max               =   4.6633690723924E-08
(PID.TID 0000.0001) %MON exf_runoff_min               =   0.0000000000000E+00
(PID.TID 0000.0001) %MON exf_runoff_mean              =   1.6070446344693E-09
(PID.TID 0000.0001) %MON exf_runoff_sd                =   5.4409705936606E-09
(PID.TID 0000.0001) %MON exf_runoff_del2              =   1.7602788524736E-12
(PID.TID 0000.0001) // =======================================================
(PID.TID 0000.0001) // End MONITOR EXF statistics
(PID.TID 0000.0001) // =======================================================
 cg2d: Sum(rhs),rhsMax =  -3.11145418037941E+04  1.63662442603082E-02
 cg2d: Sum(rhs),rhsMax =  -3.24539254130001E+04  1.69371254662979E-02
 cg2d: Sum(rhs),rhsMax =  -3.37922621727011E+04  1.74950818241406E-02
 cg2d: Sum(rhs),rhsMax =  -3.51293809090915E+04  1.80395603447584E-02
 cg2d: Sum(rhs),rhsMax =  -3.64651106109556E+04  1.85700500790886E-02
 cg2d: Sum(rhs),rhsMax =  -3.77992804512453E+04  1.90860943013535E-02
 cg2d: Sum(rhs),rhsMax =  -3.91317198085946E+04  1.95873012466134E-02
 cg2d: Sum(rhs),rhsMax =  -4.04622582888328E+04  2.00733518041259E-02
 cg2d: Sum(rhs),rhsMax =  -4.17907257464233E+04  2.05440032791182E-02
 cg2d: Sum(rhs),rhsMax =  -4.31169523058959E+04  2.09990891109404E-02
 cg2d: Sum(rhs),rhsMax =  -4.44407683832093E+04  2.14385150821072E-02
 cg2d: Sum(rhs),rhsMax =  -4.57620047070900E+04  2.18622529722692E-02
 cg2d: Sum(rhs),rhsMax =  -4.70804923403017E+04  2.22703327899433E-02
 cg2d: Sum(rhs),rhsMax =  -4.83960627008897E+04  2.26628346880591E-02
 cg2d: Sum(rhs),rhsMax =  -4.97085475833462E+04  2.30398814947393E-02
 cg2d: Sum(rhs),rhsMax =  -5.10177791797422E+04  2.34016325290632E-02
 cg2d: Sum(rhs),rhsMax =  -5.23235901007844E+04  2.37482790723111E-02
 cg2d: Sum(rhs),rhsMax =  -5.36258133968310E+04  2.40800415677476E-02
 cg2d: Sum(rhs),rhsMax =  -5.49242825788210E+04  2.43971683550935E-02
 cg2d: Sum(rhs),rhsMax =  -5.62188316391688E+04  2.46999355332719E-02
 cg2d: Sum(rhs),rhsMax =  -5.75092950725571E+04  2.49886474053106E-02
 cg2d: Sum(rhs),rhsMax =  -5.87955078966940E+04  2.52636369049246E-02
 cg2d: Sum(rhs),rhsMax =  -6.00773056729680E+04  2.55252654380014E-02
 cg2d: Sum(rhs),rhsMax =  -6.13545245270594E+04  2.57739216862377E-02
 cg2d: Sum(rhs),rhsMax =  -6.26270011694390E+04  2.60100191279653E-02
 cg2d: Sum(rhs),rhsMax =  -6.38945729158291E+04  2.62339921472307E-02
 cg2d: Sum(rhs),rhsMax =  -6.51570777075419E+04  2.64462908758789E-02
 cg2d: Sum(rhs),rhsMax =  -6.64143541317703E+04  2.66473751657648E-02
 cg2d: Sum(rhs),rhsMax =  -6.76662414417667E+04  2.68377081475185E-02
 cg2d: Sum(rhs),rhsMax =  -6.89125795769493E+04  2.70177499036539E-02
 cg2d: Sum(rhs),rhsMax =  -7.01532091829096E+04  2.71879517718403E-02
 cg2d: Sum(rhs),rhsMax =  -7.13879716313356E+04  2.73487517873509E-02
 cg2d: Sum(rhs),rhsMax =  -7.26167090398265E+04  2.75005714602400E-02
 cg2d: Sum(rhs),rhsMax =  -7.38392642916316E+04  2.76438139625647E-02
 cg2d: Sum(rhs),rhsMax =  -7.50554810552639E+04  2.77788637502498E-02
 cg2d: Sum(rhs),rhsMax =  -7.62652038040377E+04  2.79060875156636E-02
 cg2d: Sum(rhs),rhsMax =  -7.74682778354827E+04  2.80258362792179E-02
 cg2d: Sum(rhs),rhsMax =  -7.86645492906682E+04  2.81384478632465E-02
 cg2d: Sum(rhs),rhsMax =  -7.98538651734020E+04  2.82442496021439E-02
 cg2d: Sum(rhs),rhsMax =  -8.10360733693421E+04  2.83726474094515E-02
 cg2d: Sum(rhs),rhsMax =  -8.22110226649711E+04  2.85344448185330E-02
 cg2d: Sum(rhs),rhsMax =  -8.33785627664809E+04  2.86907176114804E-02
 cg2d: Sum(rhs),rhsMax =  -8.45385443185163E+04  2.88416146990616E-02
 cg2d: Sum(rhs),rhsMax =  -8.56908189228270E+04  2.89872719556003E-02
 cg2d: Sum(rhs),rhsMax =  -8.68352391567720E+04  2.91277956874283E-02
(PID.TID 0000.0001)      cg2d_init_res =   1.10474670651737E+00
(PID.TID 0000.0001)      cg2d_iters(min,last) =      -1     154
(PID.TID 0000.0001)      cg2d_last_res =   1.85661256284468E-11
(PID.TID 0000.0001) // =======================================================
(PID.TID 0000.0001) // Begin MONITOR dynamic field statistics
(PID.TID 0000.0001) // =======================================================
(PID.TID 0000.0001) %MON time_tsnumber                =              15812280
(PID.TID 0000.0001) %MON time_secondsf                =   1.2649824000000E+09
(PID.TID 0000.0001) %MON dynstat_eta_max              =   1.4483350329041E+00
(PID.TID 0000.0001) %MON dynstat_eta_min              =  -1.7791097501865E+00
(PID.TID 0000.0001) %MON dynstat_eta_mean             =   3.2816924223257E-01
(PID.TID 0000.0001) %MON dynstat_eta_sd               =   2.9944540074782E-01
(PID.TID 0000.0001) %MON dynstat_eta_del2             =   1.1047745992302E-06
(PID.TID 0000.0001) %MON dynstat_uvel_max             =   2.7412598767241E+00
(PID.TID 0000.0001) %MON dynstat_uvel_min             =  -2.5966636077174E+00
(PID.TID 0000.0001) %MON dynstat_uvel_mean            =   1.3518485769180E-02
(PID.TID 0000.0001) %MON dynstat_uvel_sd              =   9.4144669537321E-02
(PID.TID 0000.0001) %MON dynstat_uvel_del2            =   1.9288954368014E-06
(PID.TID 0000.0001) %MON dynstat_vvel_max             =   3.0597393848837E+00
(PID.TID 0000.0001) %MON dynstat_vvel_min             =  -2.8962862335278E+00
(PID.TID 0000.0001) %MON dynstat_vvel_mean            =   1.5223467525163E-02
(PID.TID 0000.0001) %MON dynstat_vvel_sd              =   8.6296496216686E-02
(PID.TID 0000.0001) %MON dynstat_vvel_del2            =   1.8039611714682E-06
(PID.TID 0000.0001) %MON dynstat_wvel_max             =   4.4915142717720E-02
(PID.TID 0000.0001) %MON dynstat_wvel_min             =  -2.9713364840696E-02
(PID.TID 0000.0001) %MON dynstat_wvel_mean            =   3.2504029402901E-05
(PID.TID 0000.0001) %MON dynstat_wvel_sd              =   1.6652072276941E-03
(PID.TID 0000.0001) %MON dynstat_wvel_del2            =   9.7231351235491E-08
(PID.TID 0000.0001) %MON dynstat_theta_max            =   2.4967313656002E+01
(PID.TID 0000.0001) %MON dynstat_theta_min            =  -2.5965450809081E+00
(PID.TID 0000.0001) %MON dynstat_theta_mean           =   5.5817342568920E+00
(PID.TID 0000.0001) %MON dynstat_theta_sd             =   4.6746703576121E+00
(PID.TID 0000.0001) %MON dynstat_theta_del2           =   7.4262612172961E-06
(PID.TID 0000.0001) %MON dynstat_salt_max             =   8.9586692519141E+01
(PID.TID 0000.0001) %MON dynstat_salt_min             =   2.0156500591649E+00
(PID.TID 0000.0001) %MON dynstat_salt_mean            =   3.5191280930816E+01
(PID.TID 0000.0001) %MON dynstat_salt_sd              =   4.5266501542489E-01
(PID.TID 0000.0001) %MON dynstat_salt_del2            =   1.4808340239780E-06
(PID.TID 0000.0001) %MON dynstat_sst_max              =   2.4953790171674E+01
(PID.TID 0000.0001) %MON dynstat_sst_min              =  -2.5965450809081E+00
(PID.TID 0000.0001) %MON dynstat_sst_mean             =   1.7697564764860E+01
(PID.TID 0000.0001) %MON dynstat_sst_sd               =   3.3953278783936E+00
(PID.TID 0000.0001) %MON dynstat_sst_del2             =   9.0613161775746E-05
(PID.TID 0000.0001) %MON dynstat_sss_max              =   8.9586692519141E+01
(PID.TID 0000.0001) %MON dynstat_sss_min              =   2.0156500591649E+00
(PID.TID 0000.0001) %MON dynstat_sss_mean             =   3.6425411292466E+01
(PID.TID 0000.0001) %MON dynstat_sss_sd               =   4.5297764423257E-01
(PID.TID 0000.0001) %MON dynstat_sss_del2             =   1.7103918183551E-05
(PID.TID 0000.0001) %MON forcing_qnet_max             =   1.6973584192441E+03
(PID.TID 0000.0001) %MON forcing_qnet_min             =  -5.4373313845232E+02
(PID.TID 0000.0001) %MON forcing_qnet_mean            =   3.0257149064326E+02
(PID.TID 0000.0001) %MON forcing_qnet_sd              =   2.7657746489080E+02
(PID.TID 0000.0001) %MON forcing_qnet_del2            =   6.1406067717577E-03
(PID.TID 0000.0001) %MON forcing_qsw_max              =   0.0000000000000E+00
(PID.TID 0000.0001) %MON forcing_qsw_min              =   0.0000000000000E+00
(PID.TID 0000.0001) %MON forcing_qsw_mean             =   0.0000000000000E+00
(PID.TID 0000.0001) %MON forcing_qsw_sd               =   0.0000000000000E+00
(PID.TID 0000.0001) %MON forcing_qsw_del2             =   0.0000000000000E+00
(PID.TID 0000.0001) %MON forcing_empmr_max            =   3.6181786524096E-04
(PID.TID 0000.0001) %MON forcing_empmr_min            =  -1.8858054203188E-03
(PID.TID 0000.0001) %MON forcing_empmr_mean           =  -3.1080236159166E-06
(PID.TID 0000.0001) %MON forcing_empmr_sd             =   2.1113313108887E-04
(PID.TID 0000.0001) %MON forcing_empmr_del2           =   1.7604598887270E-09
(PID.TID 0000.0001) %MON forcing_fu_max               =   9.2075848851359E-01
(PID.TID 0000.0001) %MON forcing_fu_min               =  -5.3103961063525E-01
(PID.TID 0000.0001) %MON forcing_fu_mean              =   1.6296913743017E-01
(PID.TID 0000.0001) %MON forcing_fu_sd                =   1.7252862637584E-01
(PID.TID 0000.0001) %MON forcing_fu_del2              =   1.0294089980487E-06
(PID.TID 0000.0001) %MON forcing_fv_max               =   8.0412916198951E-01
(PID.TID 0000.0001) %MON forcing_fv_min               =  -8.7532857110959E-01
(PID.TID 0000.0001) %MON forcing_fv_mean              =  -1.9588778661619E-02
(PID.TID 0000.0001) %MON forcing_fv_sd                =   2.1910946924203E-01
(PID.TID 0000.0001) %MON forcing_fv_del2              =   1.0084938007877E-06
(PID.TID 0000.0001) %MON trAdv_CFL_u_max              =   9.2908883720955E-02
(PID.TID 0000.0001) %MON trAdv_CFL_v_max              =   1.0566886023319E-01
(PID.TID 0000.0001) %MON trAdv_CFL_w_max              =   3.9274336276537E-01
(PID.TID 0000.0001) %MON advcfl_uvel_max              =   9.2908883209165E-02
(PID.TID 0000.0001) %MON advcfl_vvel_max              =   1.0568147380675E-01
(PID.TID 0000.0001) %MON advcfl_wvel_max              =   3.9685390224246E-01
(PID.TID 0000.0001) %MON advcfl_W_hf_max              =   4.0278320404970E-01
(PID.TID 0000.0001) %MON pe_b_mean                    =   8.2234323429730E-03
(PID.TID 0000.0001) %MON ke_max                       =   5.0323650536273E+00
(PID.TID 0000.0001) %MON ke_mean                      =   8.3172617180900E-03
(PID.TID 0000.0001) %MON ke_vol                       =   4.6123795034297E+16
(PID.TID 0000.0001) %MON vort_r_min                   =  -1.7114132660722E-03
(PID.TID 0000.0001) %MON vort_r_max                   =   1.5800279086059E-03
(PID.TID 0000.0001) %MON vort_a_mean                  =   8.2145906800515E-05
(PID.TID 0000.0001) %MON vort_a_sd                    =   1.4106535689950E-05
(PID.TID 0000.0001) %MON vort_p_mean                  =   8.4437937664994E-05
(PID.TID 0000.0001) %MON vort_p_sd                    =   3.4116565486467E-05
(PID.TID 0000.0001) %MON surfExpan_theta_mean         =   8.8914916729985E-04
(PID.TID 0000.0001) %MON surfExpan_salt_mean          =   1.9665467778301E-03
(PID.TID 0000.0001) // =======================================================
(PID.TID 0000.0001) // End MONITOR dynamic field statistics
(PID.TID 0000.0001) // =======================================================
(PID.TID 0000.0001) // =======================================================
(PID.TID 0000.0001) // Begin OBCS MONITOR field statistics
(PID.TID 0000.0001) // =======================================================
(PID.TID 0000.0001) %MON obc_E_uVel_max               =  -3.0004084698475E-01
(PID.TID 0000.0001) %MON obc_E_uVel_min               =  -6.5495762435864E-01
(PID.TID 0000.0001) %MON obc_E_uVel_mean              =  -4.2767255971012E-01
(PID.TID 0000.0001) %MON obc_E_uVel_sd                =   6.8934326957549E-02
(PID.TID 0000.0001) %MON obc_E_uVel_Int               =  -2.9186303962812E+06
(PID.TID 0000.0001) %MON obc_N_vVel_max               =   7.2222749944290E-01
(PID.TID 0000.0001) %MON obc_N_vVel_min               =  -2.5122883392290E-01
(PID.TID 0000.0001) %MON obc_N_vVel_mean              =   4.0856624331392E-03
(PID.TID 0000.0001) %MON obc_N_vVel_sd                =   3.7620548693451E-02
(PID.TID 0000.0001) %MON obc_N_vVel_Int               =   5.8300951302043E+07
(PID.TID 0000.0001) %MON obc_S_vVel_max               =   1.2402178230563E+00
(PID.TID 0000.0001) %MON obc_S_vVel_min               =  -1.5476531961865E-01
(PID.TID 0000.0001) %MON obc_S_vVel_mean              =   2.2037325844727E-02
(PID.TID 0000.0001) %MON obc_S_vVel_sd                =   2.9008611084403E-02
(PID.TID 0000.0001) %MON obc_S_vVel_Int               =   6.7010745691571E+08
(PID.TID 0000.0001) %MON obc_E_theta_max              =   1.5981519699097E+01
(PID.TID 0000.0001) %MON obc_E_theta_min              =   1.3104037284851E+01
(PID.TID 0000.0001) %MON obc_E_theta_mean             =   1.4974089986960E+01
(PID.TID 0000.0001) %MON obc_E_theta_sd               =   6.0075505804650E-01
(PID.TID 0000.0001) %MON obc_N_theta_max              =   1.5721092224121E+01
(PID.TID 0000.0001) %MON obc_N_theta_min              =   9.7373789548874E-01
(PID.TID 0000.0001) %MON obc_N_theta_mean             =   5.3443110148828E+00
(PID.TID 0000.0001) %MON obc_N_theta_sd               =   3.5834807335781E+00
(PID.TID 0000.0001) %MON obc_S_theta_max              =   2.4979528427124E+01
(PID.TID 0000.0001) %MON obc_S_theta_min              =   1.5124862194061E+00
(PID.TID 0000.0001) %MON obc_S_theta_mean             =   5.4273114502690E+00
(PID.TID 0000.0001) %MON obc_S_theta_sd               =   5.1694562801555E+00
(PID.TID 0000.0001) %MON obc_E_salt_max               =   3.8703720092773E+01
(PID.TID 0000.0001) %MON obc_E_salt_min               =   3.6289142608643E+01
(PID.TID 0000.0001) %MON obc_E_salt_mean              =   3.6643778075730E+01
(PID.TID 0000.0001) %MON obc_E_salt_sd                =   5.5037722650442E-01
(PID.TID 0000.0001) %MON obc_N_salt_max               =   3.6066974639893E+01
(PID.TID 0000.0001) %MON obc_N_salt_min               =   3.2878395080566E+01
(PID.TID 0000.0001) %MON obc_N_salt_mean              =   3.5117165924185E+01
(PID.TID 0000.0001) %MON obc_N_salt_sd                =   3.1541903364831E-01
(PID.TID 0000.0001) %MON obc_S_salt_max               =   3.7600940704346E+01
(PID.TID 0000.0001) %MON obc_S_salt_min               =   3.4853485107422E+01
(PID.TID 0000.0001) %MON obc_S_salt_mean              =   3.5185630803177E+01
(PID.TID 0000.0001) %MON obc_S_salt_sd                =   4.9502018312198E-01
(PID.TID 0000.0001) // =======================================================
(PID.TID 0000.0001) // End OBCS MONITOR field statistics
(PID.TID 0000.0001) // =======================================================
(PID.TID 0000.0001) // =======================================================
(PID.TID 0000.0001) // Begin MONITOR ptracer field statistics
(PID.TID 0000.0001) // =======================================================
(PID.TID 0000.0001) %MON trcstat_ptracer01_max        =   0.0000000000000E+00
(PID.TID 0000.0001) %MON trcstat_ptracer01_min        =   0.0000000000000E+00
(PID.TID 0000.0001) %MON trcstat_ptracer01_mean       =   0.0000000000000E+00
(PID.TID 0000.0001) %MON trcstat_ptracer01_sd         =   0.0000000000000E+00
(PID.TID 0000.0001) %MON trcstat_ptracer01_del2       =   0.0000000000000E+00
(PID.TID 0000.0001) %MON trcstat_ptracer02_max        =   0.0000000000000E+00
(PID.TID 0000.0001) %MON trcstat_ptracer02_min        =   0.0000000000000E+00
(PID.TID 0000.0001) %MON trcstat_ptracer02_mean       =   0.0000000000000E+00
(PID.TID 0000.0001) %MON trcstat_ptracer02_sd         =   0.0000000000000E+00
(PID.TID 0000.0001) %MON trcstat_ptracer02_del2       =   0.0000000000000E+00
(PID.TID 0000.0001) // =======================================================
(PID.TID 0000.0001) // End MONITOR ptracer field statistics
(PID.TID 0000.0001) // =======================================================
(PID.TID 0000.0001) // =======================================================
(PID.TID 0000.0001) // Begin MONITOR EXF statistics
(PID.TID 0000.0001) // =======================================================
(PID.TID 0000.0001) %MON exf_tsnumber                 =              15812280
(PID.TID 0000.0001) %MON exf_time_sec                 =   1.2649824000000E+09
(PID.TID 0000.0001) %MON exf_ustress_max              =   9.2393594921047E-01
(PID.TID 0000.0001) %MON exf_ustress_min              =  -5.3175912660576E-01
(PID.TID 0000.0001) %MON exf_ustress_mean             =   1.6305912418633E-01
(PID.TID 0000.0001) %MON exf_ustress_sd               =   1.7275687504459E-01
(PID.TID 0000.0001) %MON exf_ustress_del2             =   1.1283245608759E-06
(PID.TID 0000.0001) %MON exf_vstress_max              =   8.1520259585058E-01
(PID.TID 0000.0001) %MON exf_vstress_min              =  -8.8317792822280E-01
(PID.TID 0000.0001) %MON exf_vstress_mean             =  -1.9619453080014E-02
(PID.TID 0000.0001) %MON exf_vstress_sd               =   2.1943689515974E-01
(PID.TID 0000.0001) %MON exf_vstress_del2             =   1.1164624044880E-06
(PID.TID 0000.0001) %MON exf_hflux_max                =   1.6666072820542E+03
(PID.TID 0000.0001) %MON exf_hflux_min                =  -4.8124395468513E+02
(PID.TID 0000.0001) %MON exf_hflux_mean               =   3.0193748017548E+02
(PID.TID 0000.0001) %MON exf_hflux_sd                 =   2.6889346742237E+02
(PID.TID 0000.0001) %MON exf_hflux_del2               =   1.2392593551141E-01
(PID.TID 0000.0001) %MON exf_sflux_max                =   3.6234420739671E-07
(PID.TID 0000.0001) %MON exf_sflux_min                =  -1.8906330372214E-06
(PID.TID 0000.0001) %MON exf_sflux_mean               =  -3.0369844159400E-09
(PID.TID 0000.0001) %MON exf_sflux_sd                 =   2.1123246232957E-07
(PID.TID 0000.0001) %MON exf_sflux_del2               =   6.5330298892604E-11
(PID.TID 0000.0001) %MON exf_uwind_max                =   2.0264240038893E+01
(PID.TID 0000.0001) %MON exf_uwind_min                =  -1.2322126195627E+01
(PID.TID 0000.0001) %MON exf_uwind_mean               =   6.7803774924641E+00
(PID.TID 0000.0001) %MON exf_uwind_sd                 =   5.3623480567171E+00
(PID.TID 0000.0001) %MON exf_uwind_del2               =   2.6652755299527E-03
(PID.TID 0000.0001) %MON exf_vwind_max                =   1.8989457690850E+01
(PID.TID 0000.0001) %MON exf_vwind_min                =  -1.9264027575666E+01
(PID.TID 0000.0001) %MON exf_vwind_mean               =  -5.0010683808330E-01
(PID.TID 0000.0001) %MON exf_vwind_sd                 =   8.4290565799228E+00
(PID.TID 0000.0001) %MON exf_vwind_del2               =   2.6006811935552E-03
(PID.TID 0000.0001) %MON exf_wspeed_max               =   2.1970181705901E+01
(PID.TID 0000.0001) %MON exf_wspeed_min               =   1.8129476595755E-02
(PID.TID 0000.0001) %MON exf_wspeed_mean              =   1.1311919747888E+01
(PID.TID 0000.0001) %MON exf_wspeed_sd                =   4.2506315902539E+00
(PID.TID 0000.0001) %MON exf_wspeed_del2              =   3.7236432988111E-03
(PID.TID 0000.0001) %MON exf_atemp_max                =   2.9727233000895E+02
(PID.TID 0000.0001) %MON exf_atemp_min                =   2.6627552978626E+02
(PID.TID 0000.0001) %MON exf_atemp_mean               =   2.8890622901747E+02
(PID.TID 0000.0001) %MON exf_atemp_sd                 =   4.9315094068273E+00
(PID.TID 0000.0001) %MON exf_atemp_del2               =   5.0060231186512E-03
(PID.TID 0000.0001) %MON exf_aqh_max                  =   1.5110949112221E-02
(PID.TID 0000.0001) %MON exf_aqh_min                  =   1.0694433740921E-03
(PID.TID 0000.0001) %MON exf_aqh_mean                 =   8.6354737888359E-03
(PID.TID 0000.0001) %MON exf_aqh_sd                   =   2.8072597170494E-03
(PID.TID 0000.0001) %MON exf_aqh_del2                 =   2.7635881690012E-06
(PID.TID 0000.0001) %MON exf_lwflux_max               =   1.8148770467822E+02
(PID.TID 0000.0001) %MON exf_lwflux_min               =  -2.9826581660739E+01
(PID.TID 0000.0001) %MON exf_lwflux_mean              =   6.5516720506517E+01
(PID.TID 0000.0001) %MON exf_lwflux_sd                =   3.2618449787080E+01
(PID.TID 0000.0001) %MON exf_lwflux_del2              =   2.2387684864359E-02
(PID.TID 0000.0001) %MON exf_evap_max                 =   4.1001243538488E-07
(PID.TID 0000.0001) %MON exf_evap_min                 =  -1.2239268956312E-07
(PID.TID 0000.0001) %MON exf_evap_mean                =   7.7304368283676E-08
(PID.TID 0000.0001) %MON exf_evap_sd                  =   6.7843796730513E-08
(PID.TID 0000.0001) %MON exf_evap_del2                =   3.1429556608948E-11
(PID.TID 0000.0001) %MON exf_precip_max               =   1.9155064084204E-06
(PID.TID 0000.0001) %MON exf_precip_min               =   0.0000000000000E+00
(PID.TID 0000.0001) %MON exf_precip_mean              =   7.8734308065146E-08
(PID.TID 0000.0001) %MON exf_precip_sd                =   1.9182729466708E-07
(PID.TID 0000.0001) %MON exf_precip_del2              =   6.4328106393259E-11
(PID.TID 0000.0001) %MON exf_swflux_max               =   0.0000000000000E+00
(PID.TID 0000.0001) %MON exf_swflux_min               =   0.0000000000000E+00
(PID.TID 0000.0001) %MON exf_swflux_mean              =   0.0000000000000E+00
(PID.TID 0000.0001) %MON exf_swflux_sd                =   0.0000000000000E+00
(PID.TID 0000.0001) %MON exf_swflux_del2              =   0.0000000000000E+00
(PID.TID 0000.0001) %MON exf_swdown_max               =   0.0000000000000E+00
(PID.TID 0000.0001) %MON exf_swdown_min               =   0.0000000000000E+00
(PID.TID 0000.0001) %MON exf_swdown_mean              =   0.0000000000000E+00
(PID.TID 0000.0001) %MON exf_swdown_sd                =   0.0000000000000E+00
(PID.TID 0000.0001) %MON exf_swdown_del2              =   0.0000000000000E+00
(PID.TID 0000.0001) %MON exf_lwdown_max               =   4.1243967290528E+02
(PID.TID 0000.0001) %MON exf_lwdown_min               =   1.8151181866934E+02
(PID.TID 0000.0001) %MON exf_lwdown_mean              =   3.3852294782847E+02
(PID.TID 0000.0001) %MON exf_lwdown_sd                =   3.7717440442615E+01
(PID.TID 0000.0001) %MON exf_lwdown_del2              =   1.0388161231886E-01
(PID.TID 0000.0001) %MON exf_apressure_max            =   1.0265531604753E+05
(PID.TID 0000.0001) %MON exf_apressure_min            =   9.8010594082717E+04
(PID.TID 0000.0001) %MON exf_apressure_mean           =   1.0124615718691E+05
(PID.TID 0000.0001) %MON exf_apressure_sd             =   1.0882775088699E+03
(PID.TID 0000.0001) %MON exf_apressure_del2           =   3.0935274360760E+01
(PID.TID 0000.0001) %MON exf_runoff_max               =   4.6633690723924E-08
(PID.TID 0000.0001) %MON exf_runoff_min               =   0.0000000000000E+00
(PID.TID 0000.0001) %MON exf_runoff_mean              =   1.6070446344693E-09
(PID.TID 0000.0001) %MON exf_runoff_sd                =   5.4409705936606E-09
(PID.TID 0000.0001) %MON exf_runoff_del2              =   1.7602788524736E-12
(PID.TID 0000.0001) // =======================================================
(PID.TID 0000.0001) // End MONITOR EXF statistics
(PID.TID 0000.0001) // =======================================================
 cg2d: Sum(rhs),rhsMax =  -8.79716585917283E+04  2.92632515242289E-02
 cg2d: Sum(rhs),rhsMax =  -8.90999318113483E+04  2.93935829570716E-02
 cg2d: Sum(rhs),rhsMax =  -9.02199144297197E+04  2.95187061128525E-02
 cg2d: Sum(rhs),rhsMax =  -9.13314631093641E+04  2.96385180290351E-02
 cg2d: Sum(rhs),rhsMax =  -9.24344355791422E+04  2.97529063447187E-02
 cg2d: Sum(rhs),rhsMax =  -9.35286906519855E+04  2.98617585929833E-02
 cg2d: Sum(rhs),rhsMax =  -9.46140882425412E+04  2.99649701836748E-02
 cg2d: Sum(rhs),rhsMax =  -9.56904893846264E+04  3.00624504164812E-02
 cg2d: Sum(rhs),rhsMax =  -9.67577562485986E+04  3.01541264977866E-02
 cg2d: Sum(rhs),rhsMax =  -9.78157521585401E+04  3.02399452399797E-02
 cg2d: Sum(rhs),rhsMax =  -9.88643416093404E+04  3.03198724788784E-02
 cg2d: Sum(rhs),rhsMax =  -9.99033902835909E+04  3.03938903273637E-02
 cg2d: Sum(rhs),rhsMax =  -1.00932765068386E+05  3.04619926920520E-02
 cg2d: Sum(rhs),rhsMax =  -1.01952334071919E+05  3.05241789787679E-02
 cg2d: Sum(rhs),rhsMax =  -1.02961966639988E+05  3.05804473353787E-02
 cg2d: Sum(rhs),rhsMax =  -1.03961533372293E+05  3.06307884062910E-02
 cg2d: Sum(rhs),rhsMax =  -1.04950906138637E+05  3.06751802795615E-02
 cg2d: Sum(rhs),rhsMax =  -1.05929958094912E+05  3.07135849324238E-02
 cg2d: Sum(rhs),rhsMax =  -1.06898563698992E+05  3.07459461770813E-02
 cg2d: Sum(rhs),rhsMax =  -1.07856598726403E+05  3.07721891178204E-02
 cg2d: Sum(rhs),rhsMax =  -1.08803940285903E+05  3.07922222926094E-02
 cg2d: Sum(rhs),rhsMax =  -1.09740466834823E+05  3.08059371556540E-02
 cg2d: Sum(rhs),rhsMax =  -1.10666058194324E+05  3.08132114638094E-02
 cg2d: Sum(rhs),rhsMax =  -1.11580595564412E+05  3.08139153959479E-02
 cg2d: Sum(rhs),rhsMax =  -1.12483961538863E+05  3.08079205449106E-02
 cg2d: Sum(rhs),rhsMax =  -1.13376040119901E+05  3.07951112942165E-02
 cg2d: Sum(rhs),rhsMax =  -1.14256716732785E+05  3.07753975649184E-02
 cg2d: Sum(rhs),rhsMax =  -1.15125878240146E+05  3.07487274906240E-02
 cg2d: Sum(rhs),rhsMax =  -1.15983412956232E+05  3.07150988004892E-02
 cg2d: Sum(rhs),rhsMax =  -1.16829210660892E+05  3.06745669412802E-02
 cg2d: Sum(rhs),rhsMax =  -1.17663162613474E+05  3.06272485305975E-02
 cg2d: Sum(rhs),rhsMax =  -1.18485161566451E+05  3.05733192616941E-02
 cg2d: Sum(rhs),rhsMax =  -1.19295101778966E+05  3.05130059975973E-02
 cg2d: Sum(rhs),rhsMax =  -1.20092879030095E+05  3.04465734313614E-02
 cg2d: Sum(rhs),rhsMax =  -1.20878390632032E+05  3.03743062844308E-02
 cg2d: Sum(rhs),rhsMax =  -1.21651535442979E+05  3.02964885026233E-02
 cg2d: Sum(rhs),rhsMax =  -1.22412213879970E+05  3.02133813022422E-02
 cg2d: Sum(rhs),rhsMax =  -1.23160327931380E+05  3.01252020289105E-02
 cg2d: Sum(rhs),rhsMax =  -1.23895781169385E+05  3.00321056314795E-02
 cg2d: Sum(rhs),rhsMax =  -1.24618478762086E+05  2.99341702615165E-02
 cg2d: Sum(rhs),rhsMax =  -1.25328327485584E+05  2.98313880640888E-02
 cg2d: Sum(rhs),rhsMax =  -1.26025235735734E+05  2.97236617426099E-02
 cg2d: Sum(rhs),rhsMax =  -1.26709113539823E+05  2.96108068836552E-02
 cg2d: Sum(rhs),rhsMax =  -1.27379872567938E+05  2.94925596035907E-02
 cg2d: Sum(rhs),rhsMax =  -1.28037426144254E+05  2.93685886612022E-02
(PID.TID 0000.0001)      cg2d_init_res =   9.28363802455145E-01
(PID.TID 0000.0001)      cg2d_iters(min,last) =      -1     153
(PID.TID 0000.0001)      cg2d_last_res =   1.84136775659816E-11
(PID.TID 0000.0001) // =======================================================
(PID.TID 0000.0001) // Begin MONITOR dynamic field statistics
(PID.TID 0000.0001) // =======================================================
(PID.TID 0000.0001) %MON time_tsnumber                =              15812325
(PID.TID 0000.0001) %MON time_secondsf                =   1.2649860000000E+09
(PID.TID 0000.0001) %MON dynstat_eta_max              =   1.4267572826219E+00
(PID.TID 0000.0001) %MON dynstat_eta_min              =  -9.2528854323239E-01
(PID.TID 0000.0001) %MON dynstat_eta_mean             =   4.8388126206814E-01
(PID.TID 0000.0001) %MON dynstat_eta_sd               =   2.6786652801519E-01
(PID.TID 0000.0001) %MON dynstat_eta_del2             =   1.0965589303320E-06
(PID.TID 0000.0001) %MON dynstat_uvel_max             =   2.7730964744659E+00
(PID.TID 0000.0001) %MON dynstat_uvel_min             =  -2.5559991520812E+00
(PID.TID 0000.0001) %MON dynstat_uvel_mean            =   1.9312263456589E-02
(PID.TID 0000.0001) %MON dynstat_uvel_sd              =   9.4118898488599E-02
(PID.TID 0000.0001) %MON dynstat_uvel_del2            =   1.9179071470644E-06
(PID.TID 0000.0001) %MON dynstat_vvel_max             =   2.9562051070420E+00
(PID.TID 0000.0001) %MON dynstat_vvel_min             =  -2.8817060225400E+00
(PID.TID 0000.0001) %MON dynstat_vvel_mean            =   1.4908517091879E-02
(PID.TID 0000.0001) %MON dynstat_vvel_sd              =   8.6391560180844E-02
(PID.TID 0000.0001) %MON dynstat_vvel_del2            =   1.7917356231491E-06
(PID.TID 0000.0001) %MON dynstat_wvel_max             =   4.4191802867804E-02
(PID.TID 0000.0001) %MON dynstat_wvel_min             =  -3.1387698586569E-02
(PID.TID 0000.0001) %MON dynstat_wvel_mean            =   1.9106030308923E-05
(PID.TID 0000.0001) %MON dynstat_wvel_sd              =   1.6622634745519E-03
(PID.TID 0000.0001) %MON dynstat_wvel_del2            =   9.7100860621966E-08
(PID.TID 0000.0001) %MON dynstat_theta_max            =   2.4967489660539E+01
(PID.TID 0000.0001) %MON dynstat_theta_min            =  -2.6204064041692E+00
(PID.TID 0000.0001) %MON dynstat_theta_mean           =   5.5812791521861E+00
(PID.TID 0000.0001) %MON dynstat_theta_sd             =   4.6741567842468E+00
(PID.TID 0000.0001) %MON dynstat_theta_del2           =   7.4243348814911E-06
(PID.TID 0000.0001) %MON dynstat_salt_max             =   8.9588609591328E+01
(PID.TID 0000.0001) %MON dynstat_salt_min             =   2.0156655161574E+00
(PID.TID 0000.0001) %MON dynstat_salt_mean            =   3.5191238233930E+01
(PID.TID 0000.0001) %MON dynstat_salt_sd              =   4.5261381901617E-01
(PID.TID 0000.0001) %MON dynstat_salt_del2            =   1.4778392945642E-06
(PID.TID 0000.0001) %MON dynstat_sst_max              =   2.4954380531121E+01
(PID.TID 0000.0001) %MON dynstat_sst_min              =  -2.6204064041692E+00
(PID.TID 0000.0001) %MON dynstat_sst_mean             =   1.7692702186831E+01
(PID.TID 0000.0001) %MON dynstat_sst_sd               =   3.3930085456721E+00
(PID.TID 0000.0001) %MON dynstat_sst_del2             =   8.9899791558062E-05
(PID.TID 0000.0001) %MON dynstat_sss_max              =   8.9588609591328E+01
(PID.TID 0000.0001) %MON dynstat_sss_min              =   2.0156655161574E+00
(PID.TID 0000.0001) %MON dynstat_sss_mean             =   3.6425458556220E+01
(PID.TID 0000.0001) %MON dynstat_sss_sd               =   4.5260204750640E-01
(PID.TID 0000.0001) %MON dynstat_sss_del2             =   1.6968763134508E-05
(PID.TID 0000.0001) %MON forcing_qnet_max             =   1.7113107181105E+03
(PID.TID 0000.0001) %MON forcing_qnet_min             =  -5.2240790461268E+02
(PID.TID 0000.0001) %MON forcing_qnet_mean            =   3.1018385804332E+02
(PID.TID 0000.0001) %MON forcing_qnet_sd              =   2.8249823205629E+02
(PID.TID 0000.0001) %MON forcing_qnet_del2            =   6.1734703460275E-03
(PID.TID 0000.0001) %MON forcing_qsw_max              =   0.0000000000000E+00
(PID.TID 0000.0001) %MON forcing_qsw_min              =   0.0000000000000E+00
(PID.TID 0000.0001) %MON forcing_qsw_mean             =   0.0000000000000E+00
(PID.TID 0000.0001) %MON forcing_qsw_sd               =   0.0000000000000E+00
(PID.TID 0000.0001) %MON forcing_qsw_del2             =   0.0000000000000E+00
(PID.TID 0000.0001) %MON forcing_empmr_max            =   3.6575913375413E-04
(PID.TID 0000.0001) %MON forcing_empmr_min            =  -1.8263943765512E-03
(PID.TID 0000.0001) %MON forcing_empmr_mean           =   2.3606342335637E-07
(PID.TID 0000.0001) %MON forcing_empmr_sd             =   2.1415281492336E-04
(PID.TID 0000.0001) %MON forcing_empmr_del2           =   1.7544273036964E-09
(PID.TID 0000.0001) %MON forcing_fu_max               =   1.0223999625687E+00
(PID.TID 0000.0001) %MON forcing_fu_min               =  -4.6769298256433E-01
(PID.TID 0000.0001) %MON forcing_fu_mean              =   1.6779823606479E-01
(PID.TID 0000.0001) %MON forcing_fu_sd                =   1.7541882291932E-01
(PID.TID 0000.0001) %MON forcing_fu_del2              =   1.0555540613370E-06
(PID.TID 0000.0001) %MON forcing_fv_max               =   7.2108976997687E-01
(PID.TID 0000.0001) %MON forcing_fv_min               =  -8.7690165468472E-01
(PID.TID 0000.0001) %MON forcing_fv_mean              =  -2.3974934602959E-02
(PID.TID 0000.0001) %MON forcing_fv_sd                =   2.2292482676785E-01
(PID.TID 0000.0001) %MON forcing_fv_del2              =   1.0032304748866E-06
(PID.TID 0000.0001) %MON trAdv_CFL_u_max              =   9.4010860891076E-02
(PID.TID 0000.0001) %MON trAdv_CFL_v_max              =   1.0209323954147E-01
(PID.TID 0000.0001) %MON trAdv_CFL_w_max              =   3.7347136552790E-01
(PID.TID 0000.0001) %MON advcfl_uvel_max              =   9.4010860373195E-02
(PID.TID 0000.0001) %MON advcfl_vvel_max              =   1.0210546497218E-01
(PID.TID 0000.0001) %MON advcfl_wvel_max              =   3.7636649239246E-01
(PID.TID 0000.0001) %MON advcfl_W_hf_max              =   3.7930685561427E-01
(PID.TID 0000.0001) %MON pe_b_mean                    =   1.2104306139105E-02
(PID.TID 0000.0001) %MON ke_max                       =   4.9974850267743E+00
(PID.TID 0000.0001) %MON ke_mean                      =   8.4129016942902E-03
(PID.TID 0000.0001) %MON ke_vol                       =   4.6123795034297E+16
(PID.TID 0000.0001) %MON vort_r_min                   =  -1.3448661670904E-03
(PID.TID 0000.0001) %MON vort_r_max                   =   1.7743394797863E-03
(PID.TID 0000.0001) %MON vort_a_mean                  =   8.2145905843217E-05
(PID.TID 0000.0001) %MON vort_a_sd                    =   1.4133236454505E-05
(PID.TID 0000.0001) %MON vort_p_mean                  =   8.4437936680986E-05
(PID.TID 0000.0001) %MON vort_p_sd                    =   3.4173087240996E-05
(PID.TID 0000.0001) %MON surfExpan_theta_mean         =   4.7481076030646E-04
(PID.TID 0000.0001) %MON surfExpan_salt_mean          =   1.1274885866800E-03
(PID.TID 0000.0001) // =======================================================
(PID.TID 0000.0001) // End MONITOR dynamic field statistics
(PID.TID 0000.0001) // =======================================================
(PID.TID 0000.0001) // =======================================================
(PID.TID 0000.0001) // Begin OBCS MONITOR field statistics
(PID.TID 0000.0001) // =======================================================
(PID.TID 0000.0001) %MON obc_E_uVel_max               =  -1.2490607367862E-01
(PID.TID 0000.0001) %MON obc_E_uVel_min               =  -4.4955882212790E-01
(PID.TID 0000.0001) %MON obc_E_uVel_mean              =  -2.2731970562303E-01
(PID.TID 0000.0001) %MON obc_E_uVel_sd                =   6.8630111049495E-02
(PID.TID 0000.0001) %MON obc_E_uVel_Int               =  -1.5513321756130E+06
(PID.TID 0000.0001) %MON obc_N_vVel_max               =   6.6749722439755E-01
(PID.TID 0000.0001) %MON obc_N_vVel_min               =  -3.9684436937407E-01
(PID.TID 0000.0001) %MON obc_N_vVel_mean              =   1.1025115044263E-02
(PID.TID 0000.0001) %MON obc_N_vVel_sd                =   3.9448908783155E-02
(PID.TID 0000.0001) %MON obc_N_vVel_Int               =   1.5732447450415E+08
(PID.TID 0000.0001) %MON obc_S_vVel_max               =   1.2401499989459E+00
(PID.TID 0000.0001) %MON obc_S_vVel_min               =  -1.5854021428971E-01
(PID.TID 0000.0001) %MON obc_S_vVel_mean              =   1.6738379030089E-02
(PID.TID 0000.0001) %MON obc_S_vVel_sd                =   2.8822769602169E-02
(PID.TID 0000.0001) %MON obc_S_vVel_Int               =   5.0897793515306E+08
(PID.TID 0000.0001) %MON obc_E_theta_max              =   1.5981519699097E+01
(PID.TID 0000.0001) %MON obc_E_theta_min              =   1.3104037284851E+01
(PID.TID 0000.0001) %MON obc_E_theta_mean             =   1.4974089986960E+01
(PID.TID 0000.0001) %MON obc_E_theta_sd               =   6.0075505804650E-01
(PID.TID 0000.0001) %MON obc_N_theta_max              =   1.5721092224121E+01
(PID.TID 0000.0001) %MON obc_N_theta_min              =   9.7373789548874E-01
(PID.TID 0000.0001) %MON obc_N_theta_mean             =   5.3443110148828E+00
(PID.TID 0000.0001) %MON obc_N_theta_sd               =   3.5834807335781E+00
(PID.TID 0000.0001) %MON obc_S_theta_max              =   2.4979528427124E+01
(PID.TID 0000.0001) %MON obc_S_theta_min              =   1.5124862194061E+00
(PID.TID 0000.0001) %MON obc_S_theta_mean             =   5.4273114502690E+00
(PID.TID 0000.0001) %MON obc_S_theta_sd               =   5.1694562801555E+00
(PID.TID 0000.0001) %MON obc_E_salt_max               =   3.8703720092773E+01
(PID.TID 0000.0001) %MON obc_E_salt_min               =   3.6289142608643E+01
(PID.TID 0000.0001) %MON obc_E_salt_mean              =   3.6643778075730E+01
(PID.TID 0000.0001) %MON obc_E_salt_sd                =   5.5037722650442E-01
(PID.TID 0000.0001) %MON obc_N_salt_max               =   3.6066974639893E+01
(PID.TID 0000.0001) %MON obc_N_salt_min               =   3.2878395080566E+01
(PID.TID 0000.0001) %MON obc_N_salt_mean              =   3.5117165924185E+01
(PID.TID 0000.0001) %MON obc_N_salt_sd                =   3.1541903364831E-01
(PID.TID 0000.0001) %MON obc_S_salt_max               =   3.7600940704346E+01
(PID.TID 0000.0001) %MON obc_S_salt_min               =   3.4853485107422E+01
(PID.TID 0000.0001) %MON obc_S_salt_mean              =   3.5185630803177E+01
(PID.TID 0000.0001) %MON obc_S_salt_sd                =   4.9502018312198E-01
(PID.TID 0000.0001) // =======================================================
(PID.TID 0000.0001) // End OBCS MONITOR field statistics
(PID.TID 0000.0001) // =======================================================
(PID.TID 0000.0001) // =======================================================
(PID.TID 0000.0001) // Begin MONITOR ptracer field statistics
(PID.TID 0000.0001) // =======================================================
(PID.TID 0000.0001) %MON trcstat_ptracer01_max        =   0.0000000000000E+00
(PID.TID 0000.0001) %MON trcstat_ptracer01_min        =   0.0000000000000E+00
(PID.TID 0000.0001) %MON trcstat_ptracer01_mean       =   0.0000000000000E+00
(PID.TID 0000.0001) %MON trcstat_ptracer01_sd         =   0.0000000000000E+00
(PID.TID 0000.0001) %MON trcstat_ptracer01_del2       =   0.0000000000000E+00
(PID.TID 0000.0001) %MON trcstat_ptracer02_max        =   0.0000000000000E+00
(PID.TID 0000.0001) %MON trcstat_ptracer02_min        =   0.0000000000000E+00
(PID.TID 0000.0001) %MON trcstat_ptracer02_mean       =   0.0000000000000E+00
(PID.TID 0000.0001) %MON trcstat_ptracer02_sd         =   0.0000000000000E+00
(PID.TID 0000.0001) %MON trcstat_ptracer02_del2       =   0.0000000000000E+00
(PID.TID 0000.0001) // =======================================================
(PID.TID 0000.0001) // End MONITOR ptracer field statistics
(PID.TID 0000.0001) // =======================================================
(PID.TID 0000.0001) // =======================================================
(PID.TID 0000.0001) // Begin MONITOR EXF statistics
(PID.TID 0000.0001) // =======================================================
(PID.TID 0000.0001) %MON exf_tsnumber                 =              15812325
(PID.TID 0000.0001) %MON exf_time_sec                 =   1.2649860000000E+09
(PID.TID 0000.0001) %MON exf_ustress_max              =   1.0252400234850E+00
(PID.TID 0000.0001) %MON exf_ustress_min              =  -4.6779990137912E-01
(PID.TID 0000.0001) %MON exf_ustress_mean             =   1.6792382366756E-01
(PID.TID 0000.0001) %MON exf_ustress_sd               =   1.7572993121566E-01
(PID.TID 0000.0001) %MON exf_ustress_del2             =   1.1538617669285E-06
(PID.TID 0000.0001) %MON exf_vstress_max              =   7.2496457943178E-01
(PID.TID 0000.0001) %MON exf_vstress_min              =  -8.8382058811454E-01
(PID.TID 0000.0001) %MON exf_vstress_mean             =  -2.4043792138262E-02
(PID.TID 0000.0001) %MON exf_vstress_sd               =   2.2322998751011E-01
(PID.TID 0000.0001) %MON exf_vstress_del2             =   1.1099987267863E-06
(PID.TID 0000.0001) %MON exf_hflux_max                =   1.6779833874591E+03
(PID.TID 0000.0001) %MON exf_hflux_min                =  -4.8806883946140E+02
(PID.TID 0000.0001) %MON exf_hflux_mean               =   3.0938541847791E+02
(PID.TID 0000.0001) %MON exf_hflux_sd                 =   2.7469542348603E+02
(PID.TID 0000.0001) %MON exf_hflux_del2               =   1.2690871903077E-01
(PID.TID 0000.0001) %MON exf_sflux_max                =   3.6626685425639E-07
(PID.TID 0000.0001) %MON exf_sflux_min                =  -1.8183729898187E-06
(PID.TID 0000.0001) %MON exf_sflux_mean               =   3.3985846129270E-10
(PID.TID 0000.0001) %MON exf_sflux_sd                 =   2.1420690319892E-07
(PID.TID 0000.0001) %MON exf_sflux_del2               =   6.6190518950759E-11
(PID.TID 0000.0001) %MON exf_uwind_max                =   2.0675588140260E+01
(PID.TID 0000.0001) %MON exf_uwind_min                =  -1.2172637095256E+01
(PID.TID 0000.0001) %MON exf_uwind_mean               =   6.8502342210258E+00
(PID.TID 0000.0001) %MON exf_uwind_sd                 =   5.3461733851557E+00
(PID.TID 0000.0001) %MON exf_uwind_del2               =   2.6789865791507E-03
(PID.TID 0000.0001) %MON exf_vwind_max                =   1.8098784895002E+01
(PID.TID 0000.0001) %MON exf_vwind_min                =  -1.8944891325963E+01
(PID.TID 0000.0001) %MON exf_vwind_mean               =  -6.4560575917460E-01
(PID.TID 0000.0001) %MON exf_vwind_sd                 =   8.5347636679696E+00
(PID.TID 0000.0001) %MON exf_vwind_del2               =   2.6353646102144E-03
(PID.TID 0000.0001) %MON exf_wspeed_max               =   2.1983502897686E+01
(PID.TID 0000.0001) %MON exf_wspeed_min               =   6.2804762598312E-03
(PID.TID 0000.0001) %MON exf_wspeed_mean              =   1.1419180864812E+01
(PID.TID 0000.0001) %MON exf_wspeed_sd                =   4.2858586990419E+00
(PID.TID 0000.0001) %MON exf_wspeed_del2              =   3.7577056643609E-03
(PID.TID 0000.0001) %MON exf_atemp_max                =   2.9702581879928E+02
(PID.TID 0000.0001) %MON exf_atemp_min                =   2.6565791871098E+02
(PID.TID 0000.0001) %MON exf_atemp_mean               =   2.8883665733151E+02
(PID.TID 0000.0001) %MON exf_atemp_sd                 =   4.9283782367995E+00
(PID.TID 0000.0001) %MON exf_atemp_del2               =   4.9855187746043E-03
(PID.TID 0000.0001) %MON exf_aqh_max                  =   1.5011924126383E-02
(PID.TID 0000.0001) %MON exf_aqh_min                  =   1.0917259803837E-03
(PID.TID 0000.0001) %MON exf_aqh_mean                 =   8.5984316999529E-03
(PID.TID 0000.0001) %MON exf_aqh_sd                   =   2.8077633645185E-03
(PID.TID 0000.0001) %MON exf_aqh_del2                 =   2.7524588670777E-06
(PID.TID 0000.0001) %MON exf_lwflux_max               =   1.7930708071220E+02
(PID.TID 0000.0001) %MON exf_lwflux_min               =  -2.7653164055657E+01
(PID.TID 0000.0001) %MON exf_lwflux_mean              =   6.6151110005834E+01
(PID.TID 0000.0001) %MON exf_lwflux_sd                =   3.2252840201415E+01
(PID.TID 0000.0001) %MON exf_lwflux_del2              =   2.2528067369593E-02
(PID.TID 0000.0001) %MON exf_evap_max                 =   4.1620551975373E-07
(PID.TID 0000.0001) %MON exf_evap_min                 =  -1.2504753024805E-07
(PID.TID 0000.0001) %MON exf_evap_mean                =   7.9262763881465E-08
(PID.TID 0000.0001) %MON exf_evap_sd                  =   6.9526253836549E-08
(PID.TID 0000.0001) %MON exf_evap_del2                =   3.2239704252132E-11
(PID.TID 0000.0001) %MON exf_precip_max               =   1.8383151077639E-06
(PID.TID 0000.0001) %MON exf_precip_min               =   0.0000000000000E+00
(PID.TID 0000.0001) %MON exf_precip_mean              =   7.7315860785703E-08
(PID.TID 0000.0001) %MON exf_precip_sd                =   1.9425357879169E-07
(PID.TID 0000.0001) %MON exf_precip_del2              =   6.4821083838488E-11
(PID.TID 0000.0001) %MON exf_swflux_max               =   0.0000000000000E+00
(PID.TID 0000.0001) %MON exf_swflux_min               =   0.0000000000000E+00
(PID.TID 0000.0001) %MON exf_swflux_mean              =   0.0000000000000E+00
(PID.TID 0000.0001) %MON exf_swflux_sd                =   0.0000000000000E+00
(PID.TID 0000.0001) %MON exf_swflux_del2              =   0.0000000000000E+00
(PID.TID 0000.0001) %MON exf_swdown_max               =   0.0000000000000E+00
(PID.TID 0000.0001) %MON exf_swdown_min               =   0.0000000000000E+00
(PID.TID 0000.0001) %MON exf_swdown_mean              =   0.0000000000000E+00
(PID.TID 0000.0001) %MON exf_swdown_sd                =   0.0000000000000E+00
(PID.TID 0000.0001) %MON exf_swdown_del2              =   0.0000000000000E+00
(PID.TID 0000.0001) %MON exf_lwdown_max               =   4.0943754611024E+02
(PID.TID 0000.0001) %MON exf_lwdown_min               =   1.7994488142340E+02
(PID.TID 0000.0001) %MON exf_lwdown_mean              =   3.3784134535555E+02
(PID.TID 0000.0001) %MON exf_lwdown_sd                =   3.7761630023930E+01
(PID.TID 0000.0001) %MON exf_lwdown_del2              =   1.0365929179039E-01
(PID.TID 0000.0001) %MON exf_apressure_max            =   1.0263669380306E+05
(PID.TID 0000.0001) %MON exf_apressure_min            =   9.7992772952728E+04
(PID.TID 0000.0001) %MON exf_apressure_mean           =   1.0123515470382E+05
(PID.TID 0000.0001) %MON exf_apressure_sd             =   1.1064542258959E+03
(PID.TID 0000.0001) %MON exf_apressure_del2           =   3.0932130906804E+01
(PID.TID 0000.0001) %MON exf_runoff_max               =   4.6633690723924E-08
(PID.TID 0000.0001) %MON exf_runoff_min               =   0.0000000000000E+00
(PID.TID 0000.0001) %MON exf_runoff_mean              =   1.6070446344693E-09
(PID.TID 0000.0001) %MON exf_runoff_sd                =   5.4409705936606E-09
(PID.TID 0000.0001) %MON exf_runoff_del2              =   1.7602788524736E-12
(PID.TID 0000.0001) // =======================================================
(PID.TID 0000.0001) // End MONITOR EXF statistics
(PID.TID 0000.0001) // =======================================================
 cg2d: Sum(rhs),rhsMax =  -1.28681689258007E+05  2.92385109505678E-02
 cg2d: Sum(rhs),rhsMax =  -1.29312578574389E+05  2.91018730001100E-02
 cg2d: Sum(rhs),rhsMax =  -1.29930012445114E+05  2.89582192916766E-02
 cg2d: Sum(rhs),rhsMax =  -1.30533910918913E+05  2.88071129524018E-02
 cg2d: Sum(rhs),rhsMax =  -1.31124195751708E+05  2.86481544418338E-02
 cg2d: Sum(rhs),rhsMax =  -1.31700790416683E+05  2.84809976063330E-02
 cg2d: Sum(rhs),rhsMax =  -1.32263620114062E+05  2.83053631862784E-02
 cg2d: Sum(rhs),rhsMax =  -1.32812611780764E+05  2.81210480978317E-02
 cg2d: Sum(rhs),rhsMax =  -1.33347694099762E+05  2.79279302498748E-02
 cg2d: Sum(rhs),rhsMax =  -1.33868797509331E+05  2.77259687522145E-02
 cg2d: Sum(rhs),rhsMax =  -1.34375854211984E+05  2.75151997880171E-02
 cg2d: Sum(rhs),rhsMax =  -1.34868798183303E+05  2.72957287456223E-02
 cg2d: Sum(rhs),rhsMax =  -1.35347565180449E+05  2.70677195892968E-02
 cg2d: Sum(rhs),rhsMax =  -1.35812092750566E+05  2.68313828293553E-02
 cg2d: Sum(rhs),rhsMax =  -1.36262320238872E+05  2.65869632463331E-02
 cg2d: Sum(rhs),rhsMax =  -1.36698188796628E+05  2.63347278110144E-02
 cg2d: Sum(rhs),rhsMax =  -1.37119641388798E+05  2.60749556041104E-02
 cg2d: Sum(rhs),rhsMax =  -1.37526622801590E+05  2.58079298549391E-02
 cg2d: Sum(rhs),rhsMax =  -1.37919079649677E+05  2.55339322976928E-02
 cg2d: Sum(rhs),rhsMax =  -1.38296960383300E+05  2.52532397459782E-02
 cg2d: Sum(rhs),rhsMax =  -1.38660215295056E+05  2.49661226223262E-02
 cg2d: Sum(rhs),rhsMax =  -1.39008796526555E+05  2.46728451401247E-02
 cg2d: Sum(rhs),rhsMax =  -1.39342658074769E+05  2.43736665523378E-02
 cg2d: Sum(rhs),rhsMax =  -1.39661755798245E+05  2.40688430548573E-02
 cg2d: Sum(rhs),rhsMax =  -1.39966047423005E+05  2.37586300781458E-02
 cg2d: Sum(rhs),rhsMax =  -1.40255492548317E+05  2.34432844777052E-02
 cg2d: Sum(rhs),rhsMax =  -1.40530052652144E+05  2.31230663991131E-02
 cg2d: Sum(rhs),rhsMax =  -1.40789691096459E+05  2.27982408233046E-02
 cg2d: Sum(rhs),rhsMax =  -1.41034373132249E+05  2.24690785720641E-02
 cg2d: Sum(rhs),rhsMax =  -1.41264065904373E+05  2.21358568274622E-02
 cg2d: Sum(rhs),rhsMax =  -1.41478738456119E+05  2.17988593339414E-02
 cg2d: Sum(rhs),rhsMax =  -1.41678361733591E+05  2.14583762136629E-02
 cg2d: Sum(rhs),rhsMax =  -1.41862908589815E+05  2.11147035025512E-02
 cg2d: Sum(rhs),rhsMax =  -1.42032353788673E+05  2.07681425374759E-02
 cg2d: Sum(rhs),rhsMax =  -1.42186674008541E+05  2.04189990998576E-02
 cg2d: Sum(rhs),rhsMax =  -1.42325847845764E+05  2.00675823776526E-02
 cg2d: Sum(rhs),rhsMax =  -1.42449855817832E+05  1.97142036304685E-02
 cg2d: Sum(rhs),rhsMax =  -1.42558680366385E+05  1.93591746484926E-02
 cg2d: Sum(rhs),rhsMax =  -1.42652305859936E+05  1.90028056836211E-02
 cg2d: Sum(rhs),rhsMax =  -1.42730718596396E+05  1.86454027775636E-02
 cg2d: Sum(rhs),rhsMax =  -1.42793906805339E+05  1.82872644299623E-02
 cg2d: Sum(rhs),rhsMax =  -1.42841860650058E+05  1.79286776399782E-02
 cg2d: Sum(rhs),rhsMax =  -1.42874572229356E+05  1.75699131975833E-02
 cg2d: Sum(rhs),rhsMax =  -1.42892035579135E+05  1.72112203249586E-02
 cg2d: Sum(rhs),rhsMax =  -1.42894246673721E+05  1.68528209458529E-02
(PID.TID 0000.0001)      cg2d_init_res =   6.94354004647715E-01
(PID.TID 0000.0001)      cg2d_iters(min,last) =      -1     151
(PID.TID 0000.0001)      cg2d_last_res =   1.81293144227813E-11
(PID.TID 0000.0001) // =======================================================
(PID.TID 0000.0001) // Begin MONITOR dynamic field statistics
(PID.TID 0000.0001) // =======================================================
(PID.TID 0000.0001) %MON time_tsnumber                =              15812370
(PID.TID 0000.0001) %MON time_secondsf                =   1.2649896000000E+09
(PID.TID 0000.0001) %MON dynstat_eta_max              =   1.3297375068612E+00
(PID.TID 0000.0001) %MON dynstat_eta_min              =  -1.1075413956768E+00
(PID.TID 0000.0001) %MON dynstat_eta_mean             =   5.4002841594813E-01
(PID.TID 0000.0001) %MON dynstat_eta_sd               =   3.4078393962188E-01
(PID.TID 0000.0001) %MON dynstat_eta_del2             =   1.0586980357988E-06
(PID.TID 0000.0001) %MON dynstat_uvel_max             =   2.8221697723675E+00
(PID.TID 0000.0001) %MON dynstat_uvel_min             =  -2.6056782429166E+00
(PID.TID 0000.0001) %MON dynstat_uvel_mean            =   2.1198882525024E-02
(PID.TID 0000.0001) %MON dynstat_uvel_sd              =   9.3868244479609E-02
(PID.TID 0000.0001) %MON dynstat_uvel_del2            =   1.9056892269910E-06
(PID.TID 0000.0001) %MON dynstat_vvel_max             =   2.8960184602628E+00
(PID.TID 0000.0001) %MON dynstat_vvel_min             =  -2.8005647717711E+00
(PID.TID 0000.0001) %MON dynstat_vvel_mean            =   1.1136145964737E-02
(PID.TID 0000.0001) %MON dynstat_vvel_sd              =   8.6561000491749E-02
(PID.TID 0000.0001) %MON dynstat_vvel_del2            =   1.7780264852304E-06
(PID.TID 0000.0001) %MON dynstat_wvel_max             =   4.7712058712437E-02
(PID.TID 0000.0001) %MON dynstat_wvel_min             =  -3.4082835564289E-02
(PID.TID 0000.0001) %MON dynstat_wvel_mean            =   6.2211332514499E-07
(PID.TID 0000.0001) %MON dynstat_wvel_sd              =   1.6577878576356E-03
(PID.TID 0000.0001) %MON dynstat_wvel_del2            =   9.6897910169555E-08
(PID.TID 0000.0001) %MON dynstat_theta_max            =   2.4967788905140E+01
(PID.TID 0000.0001) %MON dynstat_theta_min            =  -2.6443849863964E+00
(PID.TID 0000.0001) %MON dynstat_theta_mean           =   5.5811184553307E+00
(PID.TID 0000.0001) %MON dynstat_theta_sd             =   4.6739857911720E+00
(PID.TID 0000.0001) %MON dynstat_theta_del2           =   7.4261209277261E-06
(PID.TID 0000.0001) %MON dynstat_salt_max             =   8.9591835054721E+01
(PID.TID 0000.0001) %MON dynstat_salt_min             =   2.0156827775885E+00
(PID.TID 0000.0001) %MON dynstat_salt_mean            =   3.5191226120228E+01
(PID.TID 0000.0001) %MON dynstat_salt_sd              =   4.5260509075640E-01
(PID.TID 0000.0001) %MON dynstat_salt_del2            =   1.4767624265212E-06
(PID.TID 0000.0001) %MON dynstat_sst_max              =   2.4955185216131E+01
(PID.TID 0000.0001) %MON dynstat_sst_min              =  -2.6443849863964E+00
(PID.TID 0000.0001) %MON dynstat_sst_mean             =   1.7687708155234E+01
(PID.TID 0000.0001) %MON dynstat_sst_sd               =   3.3913929014938E+00
(PID.TID 0000.0001) %MON dynstat_sst_del2             =   8.9300456208806E-05
(PID.TID 0000.0001) %MON dynstat_sss_max              =   8.9591835054721E+01
(PID.TID 0000.0001) %MON dynstat_sss_min              =   2.0156827775885E+00
(PID.TID 0000.0001) %MON dynstat_sss_mean             =   3.6425496602607E+01
(PID.TID 0000.0001) %MON dynstat_sss_sd               =   4.5233816106669E-01
(PID.TID 0000.0001) %MON dynstat_sss_del2             =   1.6872113219155E-05
(PID.TID 0000.0001) %MON forcing_qnet_max             =   1.7504741562700E+03
(PID.TID 0000.0001) %MON forcing_qnet_min             =  -5.0983875637841E+02
(PID.TID 0000.0001) %MON forcing_qnet_mean            =   3.1666154534016E+02
(PID.TID 0000.0001) %MON forcing_qnet_sd              =   2.8571618403692E+02
(PID.TID 0000.0001) %MON forcing_qnet_del2            =   6.1806754225575E-03
(PID.TID 0000.0001) %MON forcing_qsw_max              =   0.0000000000000E+00
(PID.TID 0000.0001) %MON forcing_qsw_min              =   0.0000000000000E+00
(PID.TID 0000.0001) %MON forcing_qsw_mean             =   0.0000000000000E+00
(PID.TID 0000.0001) %MON forcing_qsw_sd               =   0.0000000000000E+00
(PID.TID 0000.0001) %MON forcing_qsw_del2             =   0.0000000000000E+00
(PID.TID 0000.0001) %MON forcing_empmr_max            =   3.8938872777434E-04
(PID.TID 0000.0001) %MON forcing_empmr_min            =  -1.8101388190720E-03
(PID.TID 0000.0001) %MON forcing_empmr_mean           =   4.0533211679561E-06
(PID.TID 0000.0001) %MON forcing_empmr_sd             =   2.1641936666473E-04
(PID.TID 0000.0001) %MON forcing_empmr_del2           =   1.7598853092647E-09
(PID.TID 0000.0001) %MON forcing_fu_max               =   9.8125551129547E-01
(PID.TID 0000.0001) %MON forcing_fu_min               =  -4.3146795554577E-01
(PID.TID 0000.0001) %MON forcing_fu_mean              =   1.7156828235753E-01
(PID.TID 0000.0001) %MON forcing_fu_sd                =   1.7728411247226E-01
(PID.TID 0000.0001) %MON forcing_fu_del2              =   1.0545400631507E-06
(PID.TID 0000.0001) %MON forcing_fv_max               =   7.7539941939143E-01
(PID.TID 0000.0001) %MON forcing_fv_min               =  -8.9172371882901E-01
(PID.TID 0000.0001) %MON forcing_fv_mean              =  -2.8923535030155E-02
(PID.TID 0000.0001) %MON forcing_fv_sd                =   2.2631191175572E-01
(PID.TID 0000.0001) %MON forcing_fv_del2              =   9.9769042597937E-07
(PID.TID 0000.0001) %MON trAdv_CFL_u_max              =   9.5651144004279E-02
(PID.TID 0000.0001) %MON trAdv_CFL_v_max              =   1.0001474576926E-01
(PID.TID 0000.0001) %MON trAdv_CFL_w_max              =   3.1056751492495E-01
(PID.TID 0000.0001) %MON advcfl_uvel_max              =   9.5651143477383E-02
(PID.TID 0000.0001) %MON advcfl_vvel_max              =   1.0002665604925E-01
(PID.TID 0000.0001) %MON advcfl_wvel_max              =   3.1209139870771E-01
(PID.TID 0000.0001) %MON advcfl_W_hf_max              =   3.1363031093013E-01
(PID.TID 0000.0001) %MON pe_b_mean                    =   1.3558740024635E-02
(PID.TID 0000.0001) %MON ke_max                       =   4.9063837560705E+00
(PID.TID 0000.0001) %MON ke_mean                      =   8.3932205067659E-03
(PID.TID 0000.0001) %MON ke_vol                       =   4.6123795034297E+16
(PID.TID 0000.0001) %MON vort_r_min                   =  -1.3428803461278E-03
(PID.TID 0000.0001) %MON vort_r_max                   =   1.5425965080040E-03
(PID.TID 0000.0001) %MON vort_a_mean                  =   8.2145903629263E-05
(PID.TID 0000.0001) %MON vort_a_sd                    =   1.4120864622971E-05
(PID.TID 0000.0001) %MON vort_p_mean                  =   8.4437934405258E-05
(PID.TID 0000.0001) %MON vort_p_sd                    =   3.4159895802315E-05
(PID.TID 0000.0001) %MON surfExpan_theta_mean         =  -6.1655419504755E-05
(PID.TID 0000.0001) %MON surfExpan_salt_mean          =  -4.7832139379015E-07
(PID.TID 0000.0001) // =======================================================
(PID.TID 0000.0001) // End MONITOR dynamic field statistics
(PID.TID 0000.0001) // =======================================================
(PID.TID 0000.0001) // =======================================================
(PID.TID 0000.0001) // Begin OBCS MONITOR field statistics
(PID.TID 0000.0001) // =======================================================
(PID.TID 0000.0001) %MON obc_E_uVel_max               =   1.4548951519765E-01
(PID.TID 0000.0001) %MON obc_E_uVel_min               =  -1.6853250686348E-01
(PID.TID 0000.0001) %MON obc_E_uVel_mean              =   4.7318621836900E-02
(PID.TID 0000.0001) %MON obc_E_uVel_sd                =   7.2475442639597E-02
(PID.TID 0000.0001) %MON obc_E_uVel_Int               =   3.2292361262767E+05
(PID.TID 0000.0001) %MON obc_N_vVel_max               =   5.8123061856220E-01
(PID.TID 0000.0001) %MON obc_N_vVel_min               =  -5.2499859690747E-01
(PID.TID 0000.0001) %MON obc_N_vVel_mean              =   1.5690269037483E-02
(PID.TID 0000.0001) %MON obc_N_vVel_sd                =   4.1183287178863E-02
(PID.TID 0000.0001) %MON obc_N_vVel_Int               =   2.2389456447761E+08
(PID.TID 0000.0001) %MON obc_S_vVel_max               =   1.2473072953513E+00
(PID.TID 0000.0001) %MON obc_S_vVel_min               =  -1.6187351496566E-01
(PID.TID 0000.0001) %MON obc_S_vVel_mean              =   7.4127325180789E-03
(PID.TID 0000.0001) %MON obc_S_vVel_sd                =   2.8078602587990E-02
(PID.TID 0000.0001) %MON obc_S_vVel_Int               =   2.2540517717465E+08
(PID.TID 0000.0001) %MON obc_E_theta_max              =   1.5981519699097E+01
(PID.TID 0000.0001) %MON obc_E_theta_min              =   1.3104037284851E+01
(PID.TID 0000.0001) %MON obc_E_theta_mean             =   1.4974089986960E+01
(PID.TID 0000.0001) %MON obc_E_theta_sd               =   6.0075505804650E-01
(PID.TID 0000.0001) %MON obc_N_theta_max              =   1.5721092224121E+01
(PID.TID 0000.0001) %MON obc_N_theta_min              =   9.7373789548874E-01
(PID.TID 0000.0001) %MON obc_N_theta_mean             =   5.3443110148828E+00
(PID.TID 0000.0001) %MON obc_N_theta_sd               =   3.5834807335781E+00
(PID.TID 0000.0001) %MON obc_S_theta_max              =   2.4979528427124E+01
(PID.TID 0000.0001) %MON obc_S_theta_min              =   1.5124862194061E+00
(PID.TID 0000.0001) %MON obc_S_theta_mean             =   5.4273114502690E+00
(PID.TID 0000.0001) %MON obc_S_theta_sd               =   5.1694562801555E+00
(PID.TID 0000.0001) %MON obc_E_salt_max               =   3.8703720092773E+01
(PID.TID 0000.0001) %MON obc_E_salt_min               =   3.6289142608643E+01
(PID.TID 0000.0001) %MON obc_E_salt_mean              =   3.6643778075730E+01
(PID.TID 0000.0001) %MON obc_E_salt_sd                =   5.5037722650442E-01
(PID.TID 0000.0001) %MON obc_N_salt_max               =   3.6066974639893E+01
(PID.TID 0000.0001) %MON obc_N_salt_min               =   3.2878395080566E+01
(PID.TID 0000.0001) %MON obc_N_salt_mean              =   3.5117165924185E+01
(PID.TID 0000.0001) %MON obc_N_salt_sd                =   3.1541903364831E-01
(PID.TID 0000.0001) %MON obc_S_salt_max               =   3.7600940704346E+01
(PID.TID 0000.0001) %MON obc_S_salt_min               =   3.4853485107422E+01
(PID.TID 0000.0001) %MON obc_S_salt_mean              =   3.5185630803177E+01
(PID.TID 0000.0001) %MON obc_S_salt_sd                =   4.9502018312198E-01
(PID.TID 0000.0001) // =======================================================
(PID.TID 0000.0001) // End OBCS MONITOR field statistics
(PID.TID 0000.0001) // =======================================================
(PID.TID 0000.0001) // =======================================================
(PID.TID 0000.0001) // Begin MONITOR ptracer field statistics
(PID.TID 0000.0001) // =======================================================
(PID.TID 0000.0001) %MON trcstat_ptracer01_max        =   0.0000000000000E+00
(PID.TID 0000.0001) %MON trcstat_ptracer01_min        =   0.0000000000000E+00
(PID.TID 0000.0001) %MON trcstat_ptracer01_mean       =   0.0000000000000E+00
(PID.TID 0000.0001) %MON trcstat_ptracer01_sd         =   0.0000000000000E+00
(PID.TID 0000.0001) %MON trcstat_ptracer01_del2       =   0.0000000000000E+00
(PID.TID 0000.0001) %MON trcstat_ptracer02_max        =   0.0000000000000E+00
(PID.TID 0000.0001) %MON trcstat_ptracer02_min        =   0.0000000000000E+00
(PID.TID 0000.0001) %MON trcstat_ptracer02_mean       =   0.0000000000000E+00
(PID.TID 0000.0001) %MON trcstat_ptracer02_sd         =   0.0000000000000E+00
(PID.TID 0000.0001) %MON trcstat_ptracer02_del2       =   0.0000000000000E+00
(PID.TID 0000.0001) // =======================================================
(PID.TID 0000.0001) // End MONITOR ptracer field statistics
(PID.TID 0000.0001) // =======================================================
(PID.TID 0000.0001) // =======================================================
(PID.TID 0000.0001) // Begin MONITOR EXF statistics
(PID.TID 0000.0001) // =======================================================
(PID.TID 0000.0001) %MON exf_tsnumber                 =              15812370
(PID.TID 0000.0001) %MON exf_time_sec                 =   1.2649896000000E+09
(PID.TID 0000.0001) %MON exf_ustress_max              =   9.8051895902279E-01
(PID.TID 0000.0001) %MON exf_ustress_min              =  -4.3144687904626E-01
(PID.TID 0000.0001) %MON exf_ustress_mean             =   1.7167846579324E-01
(PID.TID 0000.0001) %MON exf_ustress_sd               =   1.7760013053630E-01
(PID.TID 0000.0001) %MON exf_ustress_del2             =   1.1495379577348E-06
(PID.TID 0000.0001) %MON exf_vstress_max              =   7.7958316195979E-01
(PID.TID 0000.0001) %MON exf_vstress_min              =  -9.0069720305657E-01
(PID.TID 0000.0001) %MON exf_vstress_mean             =  -2.9003833501229E-02
(PID.TID 0000.0001) %MON exf_vstress_sd               =   2.2663177320731E-01
(PID.TID 0000.0001) %MON exf_vstress_del2             =   1.1020911527027E-06
(PID.TID 0000.0001) %MON exf_hflux_max                =   1.7199428307787E+03
(PID.TID 0000.0001) %MON exf_hflux_min                =  -4.9513942796641E+02
(PID.TID 0000.0001) %MON exf_hflux_mean               =   3.1555557722458E+02
(PID.TID 0000.0001) %MON exf_hflux_sd                 =   2.7781980484293E+02
(PID.TID 0000.0001) %MON exf_hflux_del2               =   1.2906186044153E-01
(PID.TID 0000.0001) %MON exf_sflux_max                =   3.9039408801602E-07
(PID.TID 0000.0001) %MON exf_sflux_min                =  -1.8136642065059E-06
(PID.TID 0000.0001) %MON exf_sflux_mean               =   4.1570187990442E-09
(PID.TID 0000.0001) %MON exf_sflux_sd                 =   2.1649286064162E-07
(PID.TID 0000.0001) %MON exf_sflux_del2               =   6.6938452161971E-11
(PID.TID 0000.0001) %MON exf_uwind_max                =   2.0152959644894E+01
(PID.TID 0000.0001) %MON exf_uwind_min                =  -1.1775166002066E+01
(PID.TID 0000.0001) %MON exf_uwind_mean               =   6.9025200509468E+00
(PID.TID 0000.0001) %MON exf_uwind_sd                 =   5.3211179521499E+00
(PID.TID 0000.0001) %MON exf_uwind_del2               =   2.6865067301415E-03
(PID.TID 0000.0001) %MON exf_vwind_max                =   1.8834882865864E+01
(PID.TID 0000.0001) %MON exf_vwind_min                =  -1.8584638104072E+01
(PID.TID 0000.0001) %MON exf_vwind_mean               =  -8.1689886801141E-01
(PID.TID 0000.0001) %MON exf_vwind_sd                 =   8.6054094584444E+00
(PID.TID 0000.0001) %MON exf_vwind_del2               =   2.6613419966326E-03
(PID.TID 0000.0001) %MON exf_wspeed_max               =   2.1525654991645E+01
(PID.TID 0000.0001) %MON exf_wspeed_min               =   4.6867816562386E-03
(PID.TID 0000.0001) %MON exf_wspeed_mean              =   1.1494077698485E+01
(PID.TID 0000.0001) %MON exf_wspeed_sd                =   4.3087878670976E+00
(PID.TID 0000.0001) %MON exf_wspeed_del2              =   3.7813075244399E-03
(PID.TID 0000.0001) %MON exf_atemp_max                =   2.9695375011741E+02
(PID.TID 0000.0001) %MON exf_atemp_min                =   2.6485007238749E+02
(PID.TID 0000.0001) %MON exf_atemp_mean               =   2.8877030093405E+02
(PID.TID 0000.0001) %MON exf_atemp_sd                 =   4.9341367216568E+00
(PID.TID 0000.0001) %MON exf_atemp_del2               =   4.9666141390432E-03
(PID.TID 0000.0001) %MON exf_aqh_max                  =   1.4930865087660E-02
(PID.TID 0000.0001) %MON exf_aqh_min                  =   1.1207486879954E-03
(PID.TID 0000.0001) %MON exf_aqh_mean                 =   8.5575718614954E-03
(PID.TID 0000.0001) %MON exf_aqh_sd                   =   2.8065667518929E-03
(PID.TID 0000.0001) %MON exf_aqh_del2                 =   2.7401961387490E-06
(PID.TID 0000.0001) %MON exf_lwflux_max               =   1.7852910919309E+02
(PID.TID 0000.0001) %MON exf_lwflux_min               =  -2.9698774788036E+01
(PID.TID 0000.0001) %MON exf_lwflux_mean              =   6.6690099461912E+01
(PID.TID 0000.0001) %MON exf_lwflux_sd                =   3.1979927846794E+01
(PID.TID 0000.0001) %MON exf_lwflux_del2              =   2.2659745661118E-02
(PID.TID 0000.0001) %MON exf_evap_max                 =   4.2512694681255E-07
(PID.TID 0000.0001) %MON exf_evap_min                 =  -1.2807074604524E-07
(PID.TID 0000.0001) %MON exf_evap_mean                =   8.0924690924535E-08
(PID.TID 0000.0001) %MON exf_evap_sd                  =   7.0450921499655E-08
(PID.TID 0000.0001) %MON exf_evap_del2                =   3.2828319841970E-11
(PID.TID 0000.0001) %MON exf_precip_max               =   1.7420570819960E-06
(PID.TID 0000.0001) %MON exf_precip_min               =   0.0000000000000E+00
(PID.TID 0000.0001) %MON exf_precip_mean              =   7.5160627491021E-08
(PID.TID 0000.0001) %MON exf_precip_sd                =   1.9648765050711E-07
(PID.TID 0000.0001) %MON exf_precip_del2              =   6.5263564930700E-11
(PID.TID 0000.0001) %MON exf_swflux_max               =   0.0000000000000E+00
(PID.TID 0000.0001) %MON exf_swflux_min               =   0.0000000000000E+00
(PID.TID 0000.0001) %MON exf_swflux_mean              =   0.0000000000000E+00
(PID.TID 0000.0001) %MON exf_swflux_sd                =   0.0000000000000E+00
(PID.TID 0000.0001) %MON exf_swflux_del2              =   0.0000000000000E+00
(PID.TID 0000.0001) %MON exf_swdown_max               =   0.0000000000000E+00
(PID.TID 0000.0001) %MON exf_swdown_min               =   0.0000000000000E+00
(PID.TID 0000.0001) %MON exf_swdown_mean              =   0.0000000000000E+00
(PID.TID 0000.0001) %MON exf_swdown_sd                =   0.0000000000000E+00
(PID.TID 0000.0001) %MON exf_swdown_del2              =   0.0000000000000E+00
(PID.TID 0000.0001) %MON exf_lwdown_max               =   4.0982840085049E+02
(PID.TID 0000.0001) %MON exf_lwdown_min               =   1.7676583496043E+02
(PID.TID 0000.0001) %MON exf_lwdown_mean              =   3.3725749616058E+02
(PID.TID 0000.0001) %MON exf_lwdown_sd                =   3.7860780028672E+01
(PID.TID 0000.0001) %MON exf_lwdown_del2              =   1.0346493570421E-01
(PID.TID 0000.0001) %MON exf_apressure_max            =   1.0261415186807E+05
(PID.TID 0000.0001) %MON exf_apressure_min            =   9.7967030768871E+04
(PID.TID 0000.0001) %MON exf_apressure_mean           =   1.0121993067244E+05
(PID.TID 0000.0001) %MON exf_apressure_sd             =   1.1225280677874E+03
(PID.TID 0000.0001) %MON exf_apressure_del2           =   3.0927538288816E+01
(PID.TID 0000.0001) %MON exf_runoff_max               =   4.6633690723924E-08
(PID.TID 0000.0001) %MON exf_runoff_min               =   0.0000000000000E+00
(PID.TID 0000.0001) %MON exf_runoff_mean              =   1.6070446344693E-09
(PID.TID 0000.0001) %MON exf_runoff_sd                =   5.4409705936606E-09
(PID.TID 0000.0001) %MON exf_runoff_del2              =   1.7602788524736E-12
(PID.TID 0000.0001) // =======================================================
(PID.TID 0000.0001) // End MONITOR EXF statistics
(PID.TID 0000.0001) // =======================================================
 cg2d: Sum(rhs),rhsMax =  -1.42881203426970E+05  1.64949035722738E-02
 cg2d: Sum(rhs),rhsMax =  -1.42852905693130E+05  1.61376339331530E-02
 cg2d: Sum(rhs),rhsMax =  -1.42809355267475E+05  1.57811350592831E-02
 cg2d: Sum(rhs),rhsMax =  -1.42750555886683E+05  1.54254827301590E-02
 cg2d: Sum(rhs),rhsMax =  -1.42676513229004E+05  1.50707015943610E-02
 cg2d: Sum(rhs),rhsMax =  -1.42587234914165E+05  1.47167637032612E-02
 cg2d: Sum(rhs),rhsMax =  -1.42482730503054E+05  1.43635891897559E-02
 cg2d: Sum(rhs),rhsMax =  -1.42363011497157E+05  1.40110489278156E-02
 cg2d: Sum(rhs),rhsMax =  -1.42228091337762E+05  1.36589685858860E-02
 cg2d: Sum(rhs),rhsMax =  -1.42077985404920E+05  1.33071332974978E-02
 cg2d: Sum(rhs),rhsMax =  -1.41912711016169E+05  1.29552920887607E-02
 cg2d: Sum(rhs),rhsMax =  -1.41732287425028E+05  1.26031616841863E-02
 cg2d: Sum(rhs),rhsMax =  -1.41536735819228E+05  1.22504292477407E-02
 cg2d: Sum(rhs),rhsMax =  -1.41326079318743E+05  1.18967540391240E-02
 cg2d: Sum(rhs),rhsMax =  -1.41100342973535E+05  1.15417679411971E-02
 cg2d: Sum(rhs),rhsMax =  -1.40859553761111E+05  1.11850751651521E-02
 cg2d: Sum(rhs),rhsMax =  -1.40603740583784E+05  1.08262515496936E-02
 cg2d: Sum(rhs),rhsMax =  -1.40332934265762E+05  1.04648437622309E-02
 cg2d: Sum(rhs),rhsMax =  -1.40047167549923E+05  1.01003689284967E-02
 cg2d: Sum(rhs),rhsMax =  -1.39746475094428E+05  9.73231497831044E-03
 cg2d: Sum(rhs),rhsMax =  -1.39430893469029E+05  9.36014219350883E-03
 cg2d: Sum(rhs),rhsMax =  -1.39100461151186E+05  8.98328644724404E-03
 cg2d: Sum(rhs),rhsMax =  -1.38755218521911E+05  8.60116412750740E-03
 cg2d: Sum(rhs),rhsMax =  -1.38395207861410E+05  8.21317881838222E-03
 cg2d: Sum(rhs),rhsMax =  -1.38020473344441E+05  7.81872991898774E-03
 cg2d: Sum(rhs),rhsMax =  -1.37631061035491E+05  7.41722247175864E-03
 cg2d: Sum(rhs),rhsMax =  -1.37227018883650E+05  7.00807769140532E-03
 cg2d: Sum(rhs),rhsMax =  -1.36808396717324E+05  6.59074396484369E-03
 cg2d: Sum(rhs),rhsMax =  -1.36375246238623E+05  6.16470748174934E-03
 cg2d: Sum(rhs),rhsMax =  -1.35927621017607E+05  5.72950186155244E-03
 cg2d: Sum(rhs),rhsMax =  -1.35465576486203E+05  5.28471615915272E-03
 cg2d: Sum(rhs),rhsMax =  -1.34989169931975E+05  4.83000074261557E-03
 cg2d: Sum(rhs),rhsMax =  -1.34498460491576E+05  4.36507063194489E-03
 cg2d: Sum(rhs),rhsMax =  -1.33993509144044E+05  3.88970623484960E-03
 cg2d: Sum(rhs),rhsMax =  -1.33474378703778E+05  3.40375145066143E-03
 cg2d: Sum(rhs),rhsMax =  -1.32941133813384E+05  3.17331327084286E-03
 cg2d: Sum(rhs),rhsMax =  -1.32393840936168E+05  3.68129374033857E-03
 cg2d: Sum(rhs),rhsMax =  -1.31832568348519E+05  4.19862557618746E-03
 cg2d: Sum(rhs),rhsMax =  -1.31257386131946E+05  4.72557192492715E-03
 cg2d: Sum(rhs),rhsMax =  -1.30668366164988E+05  5.26237144250726E-03
 cg2d: Sum(rhs),rhsMax =  -1.30065582114791E+05  5.80922416325110E-03
 cg2d: Sum(rhs),rhsMax =  -1.29449109428562E+05  6.36630172350341E-03
 cg2d: Sum(rhs),rhsMax =  -1.28819025324679E+05  6.93373728066004E-03
 cg2d: Sum(rhs),rhsMax =  -1.28175408783694E+05  7.51163271057587E-03
 cg2d: Sum(rhs),rhsMax =  -1.27518340538984E+05  8.10004759703162E-03
(PID.TID 0000.0001)      cg2d_init_res =   6.61222567432486E-01
(PID.TID 0000.0001)      cg2d_iters(min,last) =      -1     150
(PID.TID 0000.0001)      cg2d_last_res =   1.99182188537503E-11
(PID.TID 0000.0001) // =======================================================
(PID.TID 0000.0001) // Begin MONITOR dynamic field statistics
(PID.TID 0000.0001) // =======================================================
(PID.TID 0000.0001) %MON time_tsnumber                =              15812415
(PID.TID 0000.0001) %MON time_secondsf                =   1.2649932000000E+09
(PID.TID 0000.0001) %MON dynstat_eta_max              =   1.5733968317883E+00
(PID.TID 0000.0001) %MON dynstat_eta_min              =  -1.1975700810435E+00
(PID.TID 0000.0001) %MON dynstat_eta_mean             =   4.8191952474364E-01
(PID.TID 0000.0001) %MON dynstat_eta_sd               =   4.2535131946724E-01
(PID.TID 0000.0001) %MON dynstat_eta_del2             =   1.0407033551816E-06
(PID.TID 0000.0001) %MON dynstat_uvel_max             =   2.8549249120677E+00
(PID.TID 0000.0001) %MON dynstat_uvel_min             =  -2.6198032798011E+00
(PID.TID 0000.0001) %MON dynstat_uvel_mean            =   1.8653600015106E-02
(PID.TID 0000.0001) %MON dynstat_uvel_sd              =   9.3596842205232E-02
(PID.TID 0000.0001) %MON dynstat_uvel_del2            =   1.8923003571733E-06
(PID.TID 0000.0001) %MON dynstat_vvel_max             =   2.8787083673398E+00
(PID.TID 0000.0001) %MON dynstat_vvel_min             =  -2.7397289485984E+00
(PID.TID 0000.0001) %MON dynstat_vvel_mean            =   4.8743341296215E-03
(PID.TID 0000.0001) %MON dynstat_vvel_sd              =   8.6737026293449E-02
(PID.TID 0000.0001) %MON dynstat_vvel_del2            =   1.7640629343566E-06
(PID.TID 0000.0001) %MON dynstat_wvel_max             =   4.8733378523955E-02
(PID.TID 0000.0001) %MON dynstat_wvel_min             =  -3.4299942557475E-02
(PID.TID 0000.0001) %MON dynstat_wvel_mean            =  -1.8288588316209E-05
(PID.TID 0000.0001) %MON dynstat_wvel_sd              =   1.6578391788382E-03
(PID.TID 0000.0001) %MON dynstat_wvel_del2            =   9.6771006402924E-08
(PID.TID 0000.0001) %MON dynstat_theta_max            =   2.4968023425689E+01
(PID.TID 0000.0001) %MON dynstat_theta_min            =  -2.6674811745403E+00
(PID.TID 0000.0001) %MON dynstat_theta_mean           =   5.5812812223067E+00
(PID.TID 0000.0001) %MON dynstat_theta_sd             =   4.6741665453705E+00
(PID.TID 0000.0001) %MON dynstat_theta_del2           =   7.4292602200581E-06
(PID.TID 0000.0001) %MON dynstat_salt_max             =   8.9595492699803E+01
(PID.TID 0000.0001) %MON dynstat_salt_min             =   2.0157001191992E+00
(PID.TID 0000.0001) %MON dynstat_salt_mean            =   3.5191247951873E+01
(PID.TID 0000.0001) %MON dynstat_salt_sd              =   4.5264148400789E-01
(PID.TID 0000.0001) %MON dynstat_salt_del2            =   1.4763894946251E-06
(PID.TID 0000.0001) %MON dynstat_sst_max              =   2.4955909649731E+01
(PID.TID 0000.0001) %MON dynstat_sst_min              =  -2.6674811745403E+00
(PID.TID 0000.0001) %MON dynstat_sst_mean             =   1.7682590268889E+01
(PID.TID 0000.0001) %MON dynstat_sst_sd               =   3.3905139382131E+00
(PID.TID 0000.0001) %MON dynstat_sst_del2             =   8.8825469135247E-05
(PID.TID 0000.0001) %MON dynstat_sss_max              =   8.9595492699803E+01
(PID.TID 0000.0001) %MON dynstat_sss_min              =   2.0157001191992E+00
(PID.TID 0000.0001) %MON dynstat_sss_mean             =   3.6425491111570E+01
(PID.TID 0000.0001) %MON dynstat_sss_sd               =   4.5219036714761E-01
(PID.TID 0000.0001) %MON dynstat_sss_del2             =   1.6836985106915E-05
(PID.TID 0000.0001) %MON forcing_qnet_max             =   1.6924098173445E+03
(PID.TID 0000.0001) %MON forcing_qnet_min             =  -5.5057683088670E+02
(PID.TID 0000.0001) %MON forcing_qnet_mean            =   3.2036785397446E+02
(PID.TID 0000.0001) %MON forcing_qnet_sd              =   2.8529340190160E+02
(PID.TID 0000.0001) %MON forcing_qnet_del2            =   6.1245182163378E-03
(PID.TID 0000.0001) %MON forcing_qsw_max              =   0.0000000000000E+00
(PID.TID 0000.0001) %MON forcing_qsw_min              =   0.0000000000000E+00
(PID.TID 0000.0001) %MON forcing_qsw_mean             =   0.0000000000000E+00
(PID.TID 0000.0001) %MON forcing_qsw_sd               =   0.0000000000000E+00
(PID.TID 0000.0001) %MON forcing_qsw_del2             =   0.0000000000000E+00
(PID.TID 0000.0001) %MON forcing_empmr_max            =   3.9555254769575E-04
(PID.TID 0000.0001) %MON forcing_empmr_min            =  -1.9992953399244E-03
(PID.TID 0000.0001) %MON forcing_empmr_mean           =   6.9746851888404E-06
(PID.TID 0000.0001) %MON forcing_empmr_sd             =   2.2004017904613E-04
(PID.TID 0000.0001) %MON forcing_empmr_del2           =   1.7341627410212E-09
(PID.TID 0000.0001) %MON forcing_fu_max               =   1.0654948060865E+00
(PID.TID 0000.0001) %MON forcing_fu_min               =  -4.3391615108269E-01
(PID.TID 0000.0001) %MON forcing_fu_mean              =   1.7387682921115E-01
(PID.TID 0000.0001) %MON forcing_fu_sd                =   1.7773109344730E-01
(PID.TID 0000.0001) %MON forcing_fu_del2              =   1.0419561360743E-06
(PID.TID 0000.0001) %MON forcing_fv_max               =   8.4570615226930E-01
(PID.TID 0000.0001) %MON forcing_fv_min               =  -8.8850887734551E-01
(PID.TID 0000.0001) %MON forcing_fv_mean              =  -3.2141903700446E-02
(PID.TID 0000.0001) %MON forcing_fv_sd                =   2.2896839216187E-01
(PID.TID 0000.0001) %MON forcing_fv_del2              =   9.9957971904093E-07
(PID.TID 0000.0001) %MON trAdv_CFL_u_max              =   9.6761306339312E-02
(PID.TID 0000.0001) %MON trAdv_CFL_v_max              =   9.9416909042440E-02
(PID.TID 0000.0001) %MON trAdv_CFL_w_max              =   3.5070181531370E-01
(PID.TID 0000.0001) %MON advcfl_uvel_max              =   9.6761305806300E-02
(PID.TID 0000.0001) %MON advcfl_vvel_max              =   9.9428776327577E-02
(PID.TID 0000.0001) %MON advcfl_wvel_max              =   3.4132071784464E-01
(PID.TID 0000.0001) %MON advcfl_W_hf_max              =   3.5070181531370E-01
(PID.TID 0000.0001) %MON pe_b_mean                    =   1.2132227836867E-02
(PID.TID 0000.0001) %MON ke_max                       =   4.7714021093739E+00
(PID.TID 0000.0001) %MON ke_mean                      =   8.2827929096147E-03
(PID.TID 0000.0001) %MON ke_vol                       =   4.6123795034297E+16
(PID.TID 0000.0001) %MON vort_r_min                   =  -1.0603528830513E-03
(PID.TID 0000.0001) %MON vort_r_max                   =   1.0446948735815E-03
(PID.TID 0000.0001) %MON vort_a_mean                  =   8.2145900656430E-05
(PID.TID 0000.0001) %MON vort_a_sd                    =   1.4076554306112E-05
(PID.TID 0000.0001) %MON vort_p_mean                  =   8.4437931349477E-05
(PID.TID 0000.0001) %MON vort_p_sd                    =   3.4092230274835E-05
(PID.TID 0000.0001) %MON surfExpan_theta_mean         =  -5.8618250488493E-04
(PID.TID 0000.0001) %MON surfExpan_salt_mean          =  -1.1341896436873E-03
(PID.TID 0000.0001) // =======================================================
(PID.TID 0000.0001) // End MONITOR dynamic field statistics
(PID.TID 0000.0001) // =======================================================
(PID.TID 0000.0001) // =======================================================
(PID.TID 0000.0001) // Begin OBCS MONITOR field statistics
(PID.TID 0000.0001) // =======================================================
(PID.TID 0000.0001) %MON obc_E_uVel_max               =   4.7898660793112E-01
(PID.TID 0000.0001) %MON obc_E_uVel_min               =   1.1524848423840E-01
(PID.TID 0000.0001) %MON obc_E_uVel_mean              =   3.2941736690787E-01
(PID.TID 0000.0001) %MON obc_E_uVel_sd                =   8.1845698667070E-02
(PID.TID 0000.0001) %MON obc_E_uVel_Int               =   2.2480926547448E+06
(PID.TID 0000.0001) %MON obc_N_vVel_max               =   2.9358933536543E-01
(PID.TID 0000.0001) %MON obc_N_vVel_min               =  -5.8034675221463E-01
(PID.TID 0000.0001) %MON obc_N_vVel_mean              =   1.6986553736229E-02
(PID.TID 0000.0001) %MON obc_N_vVel_sd                =   4.1667863191226E-02
(PID.TID 0000.0001) %MON obc_N_vVel_Int               =   2.4239208656416E+08
(PID.TID 0000.0001) %MON obc_S_vVel_max               =   1.2613531434555E+00
(PID.TID 0000.0001) %MON obc_S_vVel_min               =  -1.6307833807626E-01
(PID.TID 0000.0001) %MON obc_S_vVel_mean              =  -3.5617104428883E-03
(PID.TID 0000.0001) %MON obc_S_vVel_sd                =   2.7808540353576E-02
(PID.TID 0000.0001) %MON obc_S_vVel_Int               =  -1.0830391781519E+08
(PID.TID 0000.0001) %MON obc_E_theta_max              =   1.5981519699097E+01
(PID.TID 0000.0001) %MON obc_E_theta_min              =   1.3104037284851E+01
(PID.TID 0000.0001) %MON obc_E_theta_mean             =   1.4974089986960E+01
(PID.TID 0000.0001) %MON obc_E_theta_sd               =   6.0075505804650E-01
(PID.TID 0000.0001) %MON obc_N_theta_max              =   1.5721092224121E+01
(PID.TID 0000.0001) %MON obc_N_theta_min              =   9.7373789548874E-01
(PID.TID 0000.0001) %MON obc_N_theta_mean             =   5.3443110148828E+00
(PID.TID 0000.0001) %MON obc_N_theta_sd               =   3.5834807335781E+00
(PID.TID 0000.0001) %MON obc_S_theta_max              =   2.4979528427124E+01
(PID.TID 0000.0001) %MON obc_S_theta_min              =   1.5124862194061E+00
(PID.TID 0000.0001) %MON obc_S_theta_mean             =   5.4273114502690E+00
(PID.TID 0000.0001) %MON obc_S_theta_sd               =   5.1694562801555E+00
(PID.TID 0000.0001) %MON obc_E_salt_max               =   3.8703720092773E+01
(PID.TID 0000.0001) %MON obc_E_salt_min               =   3.6289142608643E+01
(PID.TID 0000.0001) %MON obc_E_salt_mean              =   3.6643778075730E+01
(PID.TID 0000.0001) %MON obc_E_salt_sd                =   5.5037722650442E-01
(PID.TID 0000.0001) %MON obc_N_salt_max               =   3.6066974639893E+01
(PID.TID 0000.0001) %MON obc_N_salt_min               =   3.2878395080566E+01
(PID.TID 0000.0001) %MON obc_N_salt_mean              =   3.5117165924185E+01
(PID.TID 0000.0001) %MON obc_N_salt_sd                =   3.1541903364831E-01
(PID.TID 0000.0001) %MON obc_S_salt_max               =   3.7600940704346E+01
(PID.TID 0000.0001) %MON obc_S_salt_min               =   3.4853485107422E+01
(PID.TID 0000.0001) %MON obc_S_salt_mean              =   3.5185630803177E+01
(PID.TID 0000.0001) %MON obc_S_salt_sd                =   4.9502018312198E-01
(PID.TID 0000.0001) // =======================================================
(PID.TID 0000.0001) // End OBCS MONITOR field statistics
(PID.TID 0000.0001) // =======================================================
(PID.TID 0000.0001) // =======================================================
(PID.TID 0000.0001) // Begin MONITOR ptracer field statistics
(PID.TID 0000.0001) // =======================================================
(PID.TID 0000.0001) %MON trcstat_ptracer01_max        =   0.0000000000000E+00
(PID.TID 0000.0001) %MON trcstat_ptracer01_min        =   0.0000000000000E+00
(PID.TID 0000.0001) %MON trcstat_ptracer01_mean       =   0.0000000000000E+00
(PID.TID 0000.0001) %MON trcstat_ptracer01_sd         =   0.0000000000000E+00
(PID.TID 0000.0001) %MON trcstat_ptracer01_del2       =   0.0000000000000E+00
(PID.TID 0000.0001) %MON trcstat_ptracer02_max        =   0.0000000000000E+00
(PID.TID 0000.0001) %MON trcstat_ptracer02_min        =   0.0000000000000E+00
(PID.TID 0000.0001) %MON trcstat_ptracer02_mean       =   0.0000000000000E+00
(PID.TID 0000.0001) %MON trcstat_ptracer02_sd         =   0.0000000000000E+00
(PID.TID 0000.0001) %MON trcstat_ptracer02_del2       =   0.0000000000000E+00
(PID.TID 0000.0001) // =======================================================
(PID.TID 0000.0001) // End MONITOR ptracer field statistics
(PID.TID 0000.0001) // =======================================================
(PID.TID 0000.0001) // =======================================================
(PID.TID 0000.0001) // Begin MONITOR EXF statistics
(PID.TID 0000.0001) // =======================================================
(PID.TID 0000.0001) %MON exf_tsnumber                 =              15812415
(PID.TID 0000.0001) %MON exf_time_sec                 =   1.2649932000000E+09
(PID.TID 0000.0001) %MON exf_ustress_max              =   1.0940889920469E+00
(PID.TID 0000.0001) %MON exf_ustress_min              =  -4.3457484807271E-01
(PID.TID 0000.0001) %MON exf_ustress_mean             =   1.7396325073641E-01
(PID.TID 0000.0001) %MON exf_ustress_sd               =   1.7804391489555E-01
(PID.TID 0000.0001) %MON exf_ustress_del2             =   1.1352567748435E-06
(PID.TID 0000.0001) %MON exf_vstress_max              =   8.5137393803074E-01
(PID.TID 0000.0001) %MON exf_vstress_min              =  -8.8916962478501E-01
(PID.TID 0000.0001) %MON exf_vstress_mean             =  -3.2185677398091E-02
(PID.TID 0000.0001) %MON exf_vstress_sd               =   2.2927142474191E-01
(PID.TID 0000.0001) %MON exf_vstress_del2             =   1.1022117630386E-06
(PID.TID 0000.0001) %MON exf_hflux_max                =   1.6596003403217E+03
(PID.TID 0000.0001) %MON exf_hflux_min                =  -5.2808133014804E+02
(PID.TID 0000.0001) %MON exf_hflux_mean               =   3.1907000164126E+02
(PID.TID 0000.0001) %MON exf_hflux_sd                 =   2.7725926638784E+02
(PID.TID 0000.0001) %MON exf_hflux_del2               =   1.2985511514848E-01
(PID.TID 0000.0001) %MON exf_sflux_max                =   3.9522755828056E-07
(PID.TID 0000.0001) %MON exf_sflux_min                =  -1.9900762954450E-06
(PID.TID 0000.0001) %MON exf_sflux_mean               =   7.0425385827417E-09
(PID.TID 0000.0001) %MON exf_sflux_sd                 =   2.2015847716535E-07
(PID.TID 0000.0001) %MON exf_sflux_del2               =   6.8194505252802E-11
(PID.TID 0000.0001) %MON exf_uwind_max                =   2.0528930797825E+01
(PID.TID 0000.0001) %MON exf_uwind_min                =  -1.0874610223670E+01
(PID.TID 0000.0001) %MON exf_uwind_mean               =   6.9375015423955E+00
(PID.TID 0000.0001) %MON exf_uwind_sd                 =   5.2910862787269E+00
(PID.TID 0000.0001) %MON exf_uwind_del2               =   2.6888977665255E-03
(PID.TID 0000.0001) %MON exf_vwind_max                =   1.9268110680670E+01
(PID.TID 0000.0001) %MON exf_vwind_min                =  -1.8332643779077E+01
(PID.TID 0000.0001) %MON exf_vwind_mean               =  -9.6125227021036E-01
(PID.TID 0000.0001) %MON exf_vwind_sd                 =   8.6440941098666E+00
(PID.TID 0000.0001) %MON exf_vwind_del2               =   2.6776239109314E-03
(PID.TID 0000.0001) %MON exf_wspeed_max               =   2.2352830924055E+01
(PID.TID 0000.0001) %MON exf_wspeed_min               =   1.0840818119896E-02
(PID.TID 0000.0001) %MON exf_wspeed_mean              =   1.1532595176586E+01
(PID.TID 0000.0001) %MON exf_wspeed_sd                =   4.3322210308184E+00
(PID.TID 0000.0001) %MON exf_wspeed_del2              =   3.7944866158285E-03
(PID.TID 0000.0001) %MON exf_atemp_max                =   2.9690550587325E+02
(PID.TID 0000.0001) %MON exf_atemp_min                =   2.6410373840820E+02
(PID.TID 0000.0001) %MON exf_atemp_mean               =   2.8871386437737E+02
(PID.TID 0000.0001) %MON exf_atemp_sd                 =   4.9275850221412E+00
(PID.TID 0000.0001) %MON exf_atemp_del2               =   4.9492989417409E-03
(PID.TID 0000.0001) %MON exf_aqh_max                  =   1.5043020117484E-02
(PID.TID 0000.0001) %MON exf_aqh_min                  =   1.1364438212602E-03
(PID.TID 0000.0001) %MON exf_aqh_mean                 =   8.5130432070117E-03
(PID.TID 0000.0001) %MON exf_aqh_sd                   =   2.8067467429328E-03
(PID.TID 0000.0001) %MON exf_aqh_del2                 =   2.7269060987495E-06
(PID.TID 0000.0001) %MON exf_lwflux_max               =   1.7679341358957E+02
(PID.TID 0000.0001) %MON exf_lwflux_min               =  -3.4518163129524E+01
(PID.TID 0000.0001) %MON exf_lwflux_mean              =   6.6638162011870E+01
(PID.TID 0000.0001) %MON exf_lwflux_sd                =   3.1822830546796E+01
(PID.TID 0000.0001) %MON exf_lwflux_del2              =   2.2644569760831E-02
(PID.TID 0000.0001) %MON exf_evap_max                 =   4.0990312565657E-07
(PID.TID 0000.0001) %MON exf_evap_min                 =  -1.3524243142005E-07
(PID.TID 0000.0001) %MON exf_evap_mean                =   8.2104064766603E-08
(PID.TID 0000.0001) %MON exf_evap_sd                  =   7.0514267447790E-08
(PID.TID 0000.0001) %MON exf_evap_del2                =   3.3128785145187E-11
(PID.TID 0000.0001) %MON exf_precip_max               =   1.9307363603172E-06
(PID.TID 0000.0001) %MON exf_precip_min               =   0.0000000000000E+00
(PID.TID 0000.0001) %MON exf_precip_mean              =   7.3454481549393E-08
(PID.TID 0000.0001) %MON exf_precip_sd                =   2.0013151998108E-07
(PID.TID 0000.0001) %MON exf_precip_del2              =   6.6240768554158E-11
(PID.TID 0000.0001) %MON exf_swflux_max               =   0.0000000000000E+00
(PID.TID 0000.0001) %MON exf_swflux_min               =   0.0000000000000E+00
(PID.TID 0000.0001) %MON exf_swflux_mean              =   0.0000000000000E+00
(PID.TID 0000.0001) %MON exf_swflux_sd                =   0.0000000000000E+00
(PID.TID 0000.0001) %MON exf_swflux_del2              =   0.0000000000000E+00
(PID.TID 0000.0001) %MON exf_swdown_max               =   0.0000000000000E+00
(PID.TID 0000.0001) %MON exf_swdown_min               =   0.0000000000000E+00
(PID.TID 0000.0001) %MON exf_swdown_mean              =   0.0000000000000E+00
(PID.TID 0000.0001) %MON exf_swdown_sd                =   0.0000000000000E+00
(PID.TID 0000.0001) %MON exf_swdown_del2              =   0.0000000000000E+00
(PID.TID 0000.0001) %MON exf_lwdown_max               =   4.1123753068166E+02
(PID.TID 0000.0001) %MON exf_lwdown_min               =   1.7676885688616E+02
(PID.TID 0000.0001) %MON exf_lwdown_mean              =   3.3728230139452E+02
(PID.TID 0000.0001) %MON exf_lwdown_sd                =   3.8028198885338E+01
(PID.TID 0000.0001) %MON exf_lwdown_del2              =   1.0345814464381E-01
(PID.TID 0000.0001) %MON exf_apressure_max            =   1.0261399020200E+05
(PID.TID 0000.0001) %MON exf_apressure_min            =   9.7931503980408E+04
(PID.TID 0000.0001) %MON exf_apressure_mean           =   1.0120938714798E+05
(PID.TID 0000.0001) %MON exf_apressure_sd             =   1.1360895807336E+03
(PID.TID 0000.0001) %MON exf_apressure_del2           =   3.0924284695169E+01
(PID.TID 0000.0001) %MON exf_runoff_max               =   4.6633690723924E-08
(PID.TID 0000.0001) %MON exf_runoff_min               =   0.0000000000000E+00
(PID.TID 0000.0001) %MON exf_runoff_mean              =   1.6070446344693E-09
(PID.TID 0000.0001) %MON exf_runoff_sd                =   5.4409705936606E-09
(PID.TID 0000.0001) %MON exf_runoff_del2              =   1.7602788524736E-12
(PID.TID 0000.0001) // =======================================================
(PID.TID 0000.0001) // End MONITOR EXF statistics
(PID.TID 0000.0001) // =======================================================
 cg2d: Sum(rhs),rhsMax =  -1.26847903067297E+05  8.69900703021448E-03
 cg2d: Sum(rhs),rhsMax =  -1.26164180578951E+05  9.30849887722026E-03
 cg2d: Sum(rhs),rhsMax =  -1.25467259007935E+05  9.92846767769458E-03
 cg2d: Sum(rhs),rhsMax =  -1.24757226001643E+05  1.05588052231921E-02
 cg2d: Sum(rhs),rhsMax =  -1.24034170910543E+05  1.11993628868930E-02
 cg2d: Sum(rhs),rhsMax =  -1.23298184777460E+05  1.18499515423316E-02
 cg2d: Sum(rhs),rhsMax =  -1.22549360326792E+05  1.25103440744035E-02
 cg2d: Sum(rhs),rhsMax =  -1.21787791953361E+05  1.31802688707958E-02
 cg2d: Sum(rhs),rhsMax =  -1.21013575711190E+05  1.38594184237538E-02
 cg2d: Sum(rhs),rhsMax =  -1.20226809301911E+05  1.45474549698215E-02
 cg2d: Sum(rhs),rhsMax =  -1.19427592063102E+05  1.52440065607850E-02
 cg2d: Sum(rhs),rhsMax =  -1.18616024956270E+05  1.59486808874475E-02
 cg2d: Sum(rhs),rhsMax =  -1.17792210554754E+05  1.66610653719549E-02
 cg2d: Sum(rhs),rhsMax =  -1.16956253031275E+05  1.73807420102901E-02
 cg2d: Sum(rhs),rhsMax =  -1.16108258145420E+05  1.81072921732281E-02
 cg2d: Sum(rhs),rhsMax =  -1.15248333230764E+05  1.88403096068469E-02
 cg2d: Sum(rhs),rhsMax =  -1.14376587181927E+05  1.95793925789732E-02
 cg2d: Sum(rhs),rhsMax =  -1.13493130441285E+05  2.03241537366569E-02
 cg2d: Sum(rhs),rhsMax =  -1.12598074985610E+05  2.10742144071604E-02
 cg2d: Sum(rhs),rhsMax =  -1.11691534312360E+05  2.18291935141724E-02
 cg2d: Sum(rhs),rhsMax =  -1.10773623425917E+05  2.25887122980358E-02
 cg2d: Sum(rhs),rhsMax =  -1.09844458823468E+05  2.33523878346907E-02
 cg2d: Sum(rhs),rhsMax =  -1.08904158480830E+05  2.41198241017912E-02
 cg2d: Sum(rhs),rhsMax =  -1.07952841837936E+05  2.48906195429081E-02
 cg2d: Sum(rhs),rhsMax =  -1.06990629784260E+05  2.56643633320443E-02
 cg2d: Sum(rhs),rhsMax =  -1.06017644643904E+05  2.64406439060234E-02
 cg2d: Sum(rhs),rhsMax =  -1.05034010160631E+05  2.72190441042952E-02
 cg2d: Sum(rhs),rhsMax =  -1.04039851482569E+05  2.79991546058694E-02
 cg2d: Sum(rhs),rhsMax =  -1.03035295146846E+05  2.87805742376056E-02
 cg2d: Sum(rhs),rhsMax =  -1.02020469063916E+05  2.95629155478190E-02
 cg2d: Sum(rhs),rhsMax =  -1.00995502501817E+05  3.03458050354716E-02
 cg2d: Sum(rhs),rhsMax =  -9.99605260701167E+04  3.11288932129038E-02
 cg2d: Sum(rhs),rhsMax =  -9.89156717037997E+04  3.19118476386259E-02
 cg2d: Sum(rhs),rhsMax =  -9.78610726468440E+04  3.26943640389384E-02
 cg2d: Sum(rhs),rhsMax =  -9.67968634357372E+04  3.34761610168038E-02
 cg2d: Sum(rhs),rhsMax =  -9.57231798827014E+04  3.42569871219024E-02
 cg2d: Sum(rhs),rhsMax =  -9.46401590588390E+04  3.50366117273972E-02
 cg2d: Sum(rhs),rhsMax =  -9.35479392770075E+04  3.58148342153975E-02
 cg2d: Sum(rhs),rhsMax =  -9.24466600746236E+04  3.65914761102579E-02
 cg2d: Sum(rhs),rhsMax =  -9.13364621961787E+04  3.73663871598269E-02
 cg2d: Sum(rhs),rhsMax =  -9.02174875757014E+04  3.81394346434052E-02
 cg2d: Sum(rhs),rhsMax =  -8.90898793189418E+04  3.89105105993032E-02
 cg2d: Sum(rhs),rhsMax =  -8.79537816854914E+04  3.96795237305637E-02
 cg2d: Sum(rhs),rhsMax =  -8.68093400706406E+04  4.04464035314260E-02
 cg2d: Sum(rhs),rhsMax =  -8.56567009871723E+04  4.12110893767614E-02
(PID.TID 0000.0001)      cg2d_init_res =   8.79584826425930E-01
(PID.TID 0000.0001)      cg2d_iters(min,last) =      -1     152
(PID.TID 0000.0001)      cg2d_last_res =   1.95120742089824E-11
(PID.TID 0000.0001) // =======================================================
(PID.TID 0000.0001) // Begin MONITOR dynamic field statistics
(PID.TID 0000.0001) // =======================================================
(PID.TID 0000.0001) %MON time_tsnumber                =              15812460
(PID.TID 0000.0001) %MON time_secondsf                =   1.2649968000000E+09
(PID.TID 0000.0001) %MON dynstat_eta_max              =   1.6939432081513E+00
(PID.TID 0000.0001) %MON dynstat_eta_min              =  -1.1445025516788E+00
(PID.TID 0000.0001) %MON dynstat_eta_mean             =   3.2371529033682E-01
(PID.TID 0000.0001) %MON dynstat_eta_sd               =   4.5397528292757E-01
(PID.TID 0000.0001) %MON dynstat_eta_del2             =   1.0616647930465E-06
(PID.TID 0000.0001) %MON dynstat_uvel_max             =   2.8994761114144E+00
(PID.TID 0000.0001) %MON dynstat_uvel_min             =  -2.6611658177831E+00
(PID.TID 0000.0001) %MON dynstat_uvel_mean            =   1.2246576404094E-02
(PID.TID 0000.0001) %MON dynstat_uvel_sd              =   9.3545161846758E-02
(PID.TID 0000.0001) %MON dynstat_uvel_del2            =   1.8806785949546E-06
(PID.TID 0000.0001) %MON dynstat_vvel_max             =   2.8245330698412E+00
(PID.TID 0000.0001) %MON dynstat_vvel_min             =  -2.6846148640553E+00
(PID.TID 0000.0001) %MON dynstat_vvel_mean            =  -2.3146588533005E-03
(PID.TID 0000.0001) %MON dynstat_vvel_sd              =   8.6837799882239E-02
(PID.TID 0000.0001) %MON dynstat_vvel_del2            =   1.7538753526108E-06
(PID.TID 0000.0001) %MON dynstat_wvel_max             =   4.6012246078456E-02
(PID.TID 0000.0001) %MON dynstat_wvel_min             =  -3.2377729291638E-02
(PID.TID 0000.0001) %MON dynstat_wvel_mean            =  -3.2814460869215E-05
(PID.TID 0000.0001) %MON dynstat_wvel_sd              =   1.6611383665782E-03
(PID.TID 0000.0001) %MON dynstat_wvel_del2            =   9.6835370099573E-08
(PID.TID 0000.0001) %MON dynstat_theta_max            =   2.4968273503205E+01
(PID.TID 0000.0001) %MON dynstat_theta_min            =  -2.6893270634357E+00
(PID.TID 0000.0001) %MON dynstat_theta_mean           =   5.5817128076951E+00
(PID.TID 0000.0001) %MON dynstat_theta_sd             =   4.6746160373889E+00
(PID.TID 0000.0001) %MON dynstat_theta_del2           =   7.4317635793459E-06
(PID.TID 0000.0001) %MON dynstat_salt_max             =   8.9599644226623E+01
(PID.TID 0000.0001) %MON dynstat_salt_min             =   2.0157157745288E+00
(PID.TID 0000.0001) %MON dynstat_salt_mean            =   3.5191298315841E+01
(PID.TID 0000.0001) %MON dynstat_salt_sd              =   4.5271377703785E-01
(PID.TID 0000.0001) %MON dynstat_salt_del2            =   1.4760978392875E-06
(PID.TID 0000.0001) %MON dynstat_sst_max              =   2.4956482064934E+01
(PID.TID 0000.0001) %MON dynstat_sst_min              =  -2.6893270634357E+00
(PID.TID 0000.0001) %MON dynstat_sst_mean             =   1.7677392973794E+01
(PID.TID 0000.0001) %MON dynstat_sst_sd               =   3.3903522506586E+00
(PID.TID 0000.0001) %MON dynstat_sst_del2             =   8.8532977888833E-05
(PID.TID 0000.0001) %MON dynstat_sss_max              =   8.9599644226623E+01
(PID.TID 0000.0001) %MON dynstat_sss_min              =   2.0157157745288E+00
(PID.TID 0000.0001) %MON dynstat_sss_mean             =   3.6425415963390E+01
(PID.TID 0000.0001) %MON dynstat_sss_sd               =   4.5223371036568E-01
(PID.TID 0000.0001) %MON dynstat_sss_del2             =   1.6858401261990E-05
(PID.TID 0000.0001) %MON forcing_qnet_max             =   1.6216994961814E+03
(PID.TID 0000.0001) %MON forcing_qnet_min             =  -5.5714927969443E+02
(PID.TID 0000.0001) %MON forcing_qnet_mean            =   3.2293544183359E+02
(PID.TID 0000.0001) %MON forcing_qnet_sd              =   2.8362029528756E+02
(PID.TID 0000.0001) %MON forcing_qnet_del2            =   6.0559387973145E-03
(PID.TID 0000.0001) %MON forcing_qsw_max              =   0.0000000000000E+00
(PID.TID 0000.0001) %MON forcing_qsw_min              =   0.0000000000000E+00
(PID.TID 0000.0001) %MON forcing_qsw_mean             =   0.0000000000000E+00
(PID.TID 0000.0001) %MON forcing_qsw_sd               =   0.0000000000000E+00
(PID.TID 0000.0001) %MON forcing_qsw_del2             =   0.0000000000000E+00
(PID.TID 0000.0001) %MON forcing_empmr_max            =   3.6916637882569E-04
(PID.TID 0000.0001) %MON forcing_empmr_min            =  -2.0494538907034E-03
(PID.TID 0000.0001) %MON forcing_empmr_mean           =   7.8844396431316E-06
(PID.TID 0000.0001) %MON forcing_empmr_sd             =   2.2662266291900E-04
(PID.TID 0000.0001) %MON forcing_empmr_del2           =   1.7240836256937E-09
(PID.TID 0000.0001) %MON forcing_fu_max               =   1.1208241497565E+00
(PID.TID 0000.0001) %MON forcing_fu_min               =  -3.2769123644687E-01
(PID.TID 0000.0001) %MON forcing_fu_mean              =   1.7579714164318E-01
(PID.TID 0000.0001) %MON forcing_fu_sd                =   1.7844769333696E-01
(PID.TID 0000.0001) %MON forcing_fu_del2              =   1.0362976160303E-06
(PID.TID 0000.0001) %MON forcing_fv_max               =   9.3386962509827E-01
(PID.TID 0000.0001) %MON forcing_fv_min               =  -8.6607924218767E-01
(PID.TID 0000.0001) %MON forcing_fv_mean              =  -3.4924286738936E-02
(PID.TID 0000.0001) %MON forcing_fv_sd                =   2.3243762953928E-01
(PID.TID 0000.0001) %MON forcing_fv_del2              =   9.9709960123642E-07
(PID.TID 0000.0001) %MON trAdv_CFL_u_max              =   9.8295262309501E-02
(PID.TID 0000.0001) %MON trAdv_CFL_v_max              =   9.7546006966589E-02
(PID.TID 0000.0001) %MON trAdv_CFL_w_max              =   3.9238214898437E-01
(PID.TID 0000.0001) %MON advcfl_uvel_max              =   9.8295261768018E-02
(PID.TID 0000.0001) %MON advcfl_vvel_max              =   9.7557595627725E-02
(PID.TID 0000.0001) %MON advcfl_wvel_max              =   3.8289799395519E-01
(PID.TID 0000.0001) %MON advcfl_W_hf_max              =   3.9238214898437E-01
(PID.TID 0000.0001) %MON pe_b_mean                    =   8.1613746883972E-03
(PID.TID 0000.0001) %MON ke_max                       =   4.6686442930064E+00
(PID.TID 0000.0001) %MON ke_mean                      =   8.1790421224837E-03
(PID.TID 0000.0001) %MON ke_vol                       =   4.6123795034297E+16
(PID.TID 0000.0001) %MON vort_r_min                   =  -1.2779654568460E-03
(PID.TID 0000.0001) %MON vort_r_max                   =   1.3178071175004E-03
(PID.TID 0000.0001) %MON vort_a_mean                  =   8.2145897519809E-05
(PID.TID 0000.0001) %MON vort_a_sd                    =   1.4033244654824E-05
(PID.TID 0000.0001) %MON vort_p_mean                  =   8.4437928125339E-05
(PID.TID 0000.0001) %MON vort_p_sd                    =   3.4033181365396E-05
(PID.TID 0000.0001) %MON surfExpan_theta_mean         =  -9.6429255041383E-04
(PID.TID 0000.0001) %MON surfExpan_salt_mean          =  -1.9852985045478E-03
(PID.TID 0000.0001) // =======================================================
(PID.TID 0000.0001) // End MONITOR dynamic field statistics
(PID.TID 0000.0001) // =======================================================
(PID.TID 0000.0001) // =======================================================
(PID.TID 0000.0001) // Begin OBCS MONITOR field statistics
(PID.TID 0000.0001) // =======================================================
(PID.TID 0000.0001) %MON obc_E_uVel_max               =   7.5403606806937E-01
(PID.TID 0000.0001) %MON obc_E_uVel_min               =   3.3540059518812E-01
(PID.TID 0000.0001) %MON obc_E_uVel_mean              =   5.4855238857188E-01
(PID.TID 0000.0001) %MON obc_E_uVel_sd                =   9.3100925370372E-02
(PID.TID 0000.0001) %MON obc_E_uVel_Int               =   3.7435688563319E+06
(PID.TID 0000.0001) %MON obc_N_vVel_max               =   2.1154988997890E-01
(PID.TID 0000.0001) %MON obc_N_vVel_min               =  -5.4287427161174E-01
(PID.TID 0000.0001) %MON obc_N_vVel_mean              =   1.4598766396375E-02
(PID.TID 0000.0001) %MON obc_N_vVel_sd                =   4.0817396923466E-02
(PID.TID 0000.0001) %MON obc_N_vVel_Int               =   2.0831920959535E+08
(PID.TID 0000.0001) %MON obc_S_vVel_max               =   1.2800450816725E+00
(PID.TID 0000.0001) %MON obc_S_vVel_min               =  -1.6171841355248E-01
(PID.TID 0000.0001) %MON obc_S_vVel_mean              =  -1.3387242375494E-02
(PID.TID 0000.0001) %MON obc_S_vVel_sd                =   2.8803510969036E-02
(PID.TID 0000.0001) %MON obc_S_vVel_Int               =  -4.0707711119600E+08
(PID.TID 0000.0001) %MON obc_E_theta_max              =   1.5981519699097E+01
(PID.TID 0000.0001) %MON obc_E_theta_min              =   1.3104037284851E+01
(PID.TID 0000.0001) %MON obc_E_theta_mean             =   1.4974089986960E+01
(PID.TID 0000.0001) %MON obc_E_theta_sd               =   6.0075505804650E-01
(PID.TID 0000.0001) %MON obc_N_theta_max              =   1.5721092224121E+01
(PID.TID 0000.0001) %MON obc_N_theta_min              =   9.7373789548874E-01
(PID.TID 0000.0001) %MON obc_N_theta_mean             =   5.3443110148828E+00
(PID.TID 0000.0001) %MON obc_N_theta_sd               =   3.5834807335781E+00
(PID.TID 0000.0001) %MON obc_S_theta_max              =   2.4979528427124E+01
(PID.TID 0000.0001) %MON obc_S_theta_min              =   1.5124862194061E+00
(PID.TID 0000.0001) %MON obc_S_theta_mean             =   5.4273114502690E+00
(PID.TID 0000.0001) %MON obc_S_theta_sd               =   5.1694562801555E+00
(PID.TID 0000.0001) %MON obc_E_salt_max               =   3.8703720092773E+01
(PID.TID 0000.0001) %MON obc_E_salt_min               =   3.6289142608643E+01
(PID.TID 0000.0001) %MON obc_E_salt_mean              =   3.6643778075730E+01
(PID.TID 0000.0001) %MON obc_E_salt_sd                =   5.5037722650442E-01
(PID.TID 0000.0001) %MON obc_N_salt_max               =   3.6066974639893E+01
(PID.TID 0000.0001) %MON obc_N_salt_min               =   3.2878395080566E+01
(PID.TID 0000.0001) %MON obc_N_salt_mean              =   3.5117165924185E+01
(PID.TID 0000.0001) %MON obc_N_salt_sd                =   3.1541903364831E-01
(PID.TID 0000.0001) %MON obc_S_salt_max               =   3.7600940704346E+01
(PID.TID 0000.0001) %MON obc_S_salt_min               =   3.4853485107422E+01
(PID.TID 0000.0001) %MON obc_S_salt_mean              =   3.5185630803177E+01
(PID.TID 0000.0001) %MON obc_S_salt_sd                =   4.9502018312198E-01
(PID.TID 0000.0001) // =======================================================
(PID.TID 0000.0001) // End OBCS MONITOR field statistics
(PID.TID 0000.0001) // =======================================================
(PID.TID 0000.0001) // =======================================================
(PID.TID 0000.0001) // Begin MONITOR ptracer field statistics
(PID.TID 0000.0001) // =======================================================
(PID.TID 0000.0001) %MON trcstat_ptracer01_max        =   0.0000000000000E+00
(PID.TID 0000.0001) %MON trcstat_ptracer01_min        =   0.0000000000000E+00
(PID.TID 0000.0001) %MON trcstat_ptracer01_mean       =   0.0000000000000E+00
(PID.TID 0000.0001) %MON trcstat_ptracer01_sd         =   0.0000000000000E+00
(PID.TID 0000.0001) %MON trcstat_ptracer01_del2       =   0.0000000000000E+00
(PID.TID 0000.0001) %MON trcstat_ptracer02_max        =   0.0000000000000E+00
(PID.TID 0000.0001) %MON trcstat_ptracer02_min        =   0.0000000000000E+00
(PID.TID 0000.0001) %MON trcstat_ptracer02_mean       =   0.0000000000000E+00
(PID.TID 0000.0001) %MON trcstat_ptracer02_sd         =   0.0000000000000E+00
(PID.TID 0000.0001) %MON trcstat_ptracer02_del2       =   0.0000000000000E+00
(PID.TID 0000.0001) // =======================================================
(PID.TID 0000.0001) // End MONITOR ptracer field statistics
(PID.TID 0000.0001) // =======================================================
(PID.TID 0000.0001) // =======================================================
(PID.TID 0000.0001) // Begin MONITOR EXF statistics
(PID.TID 0000.0001) // =======================================================
(PID.TID 0000.0001) %MON exf_tsnumber                 =              15812460
(PID.TID 0000.0001) %MON exf_time_sec                 =   1.2649968000000E+09
(PID.TID 0000.0001) %MON exf_ustress_max              =   1.1514759787722E+00
(PID.TID 0000.0001) %MON exf_ustress_min              =  -3.2700061983889E-01
(PID.TID 0000.0001) %MON exf_ustress_mean             =   1.7588618188768E-01
(PID.TID 0000.0001) %MON exf_ustress_sd               =   1.7881349071833E-01
(PID.TID 0000.0001) %MON exf_ustress_del2             =   1.1305892800821E-06
(PID.TID 0000.0001) %MON exf_vstress_max              =   9.3912802382401E-01
(PID.TID 0000.0001) %MON exf_vstress_min              =  -8.6628741214780E-01
(PID.TID 0000.0001) %MON exf_vstress_mean             =  -3.4953861046535E-02
(PID.TID 0000.0001) %MON exf_vstress_sd               =   2.3278431575476E-01
(PID.TID 0000.0001) %MON exf_vstress_del2             =   1.0983248072160E-06
(PID.TID 0000.0001) %MON exf_hflux_max                =   1.5940003513343E+03
(PID.TID 0000.0001) %MON exf_hflux_min                =  -5.2200739742008E+02
(PID.TID 0000.0001) %MON exf_hflux_mean               =   3.2154785190949E+02
(PID.TID 0000.0001) %MON exf_hflux_sd                 =   2.7544575791328E+02
(PID.TID 0000.0001) %MON exf_hflux_del2               =   1.3015779679229E-01
(PID.TID 0000.0001) %MON exf_sflux_max                =   3.6872994454439E-07
(PID.TID 0000.0001) %MON exf_sflux_min                =  -2.0396556392695E-06
(PID.TID 0000.0001) %MON exf_sflux_mean               =   7.8946755460598E-09
(PID.TID 0000.0001) %MON exf_sflux_sd                 =   2.2685723865972E-07
(PID.TID 0000.0001) %MON exf_sflux_del2               =   7.0298594049453E-11
(PID.TID 0000.0001) %MON exf_uwind_max                =   2.1208884228021E+01
(PID.TID 0000.0001) %MON exf_uwind_min                =  -9.9628596011968E+00
(PID.TID 0000.0001) %MON exf_uwind_mean               =   6.9675600603128E+00
(PID.TID 0000.0001) %MON exf_uwind_sd                 =   5.2626465961579E+00
(PID.TID 0000.0001) %MON exf_uwind_del2               =   2.6905786955240E-03
(PID.TID 0000.0001) %MON exf_vwind_max                =   2.0500029534825E+01
(PID.TID 0000.0001) %MON exf_vwind_min                =  -1.7880650091738E+01
(PID.TID 0000.0001) %MON exf_vwind_mean               =  -1.1005328173416E+00
(PID.TID 0000.0001) %MON exf_vwind_sd                 =   8.6751488266713E+00
(PID.TID 0000.0001) %MON exf_vwind_del2               =   2.6925914886713E-03
(PID.TID 0000.0001) %MON exf_wspeed_max               =   2.2470887454218E+01
(PID.TID 0000.0001) %MON exf_wspeed_min               =   2.3440955234462E-02
(PID.TID 0000.0001) %MON exf_wspeed_mean              =   1.1561316828153E+01
(PID.TID 0000.0001) %MON exf_wspeed_sd                =   4.3643642419187E+00
(PID.TID 0000.0001) %MON exf_wspeed_del2              =   3.8062556345759E-03
(PID.TID 0000.0001) %MON exf_atemp_max                =   2.9678371775070E+02
(PID.TID 0000.0001) %MON exf_atemp_min                =   2.6377146292111E+02
(PID.TID 0000.0001) %MON exf_atemp_mean               =   2.8865235460589E+02
(PID.TID 0000.0001) %MON exf_atemp_sd                 =   4.9170552090645E+00
(PID.TID 0000.0001) %MON exf_atemp_del2               =   4.9304199646871E-03
(PID.TID 0000.0001) %MON exf_aqh_max                  =   1.5270017169100E-02
(PID.TID 0000.0001) %MON exf_aqh_min                  =   1.1494771691386E-03
(PID.TID 0000.0001) %MON exf_aqh_mean                 =   8.4676739423936E-03
(PID.TID 0000.0001) %MON exf_aqh_sd                   =   2.8062606519762E-03
(PID.TID 0000.0001) %MON exf_aqh_del2                 =   2.7133593194013E-06
(PID.TID 0000.0001) %MON exf_lwflux_max               =   1.7417860174653E+02
(PID.TID 0000.0001) %MON exf_lwflux_min               =  -4.0527003318561E+01
(PID.TID 0000.0001) %MON exf_lwflux_mean              =   6.6072376108630E+01
(PID.TID 0000.0001) %MON exf_lwflux_sd                =   3.1270599182111E+01
(PID.TID 0000.0001) %MON exf_lwflux_del2              =   2.2419897108996E-02
(PID.TID 0000.0001) %MON exf_evap_max                 =   3.9354262967608E-07
(PID.TID 0000.0001) %MON exf_evap_min                 =  -1.2906581763828E-07
(PID.TID 0000.0001) %MON exf_evap_mean                =   8.3042312817251E-08
(PID.TID 0000.0001) %MON exf_evap_sd                  =   7.0338089896999E-08
(PID.TID 0000.0001) %MON exf_evap_del2                =   3.3333425118622E-11
(PID.TID 0000.0001) %MON exf_precip_max               =   1.9948793325193E-06
(PID.TID 0000.0001) %MON exf_precip_min               =   0.0000000000000E+00
(PID.TID 0000.0001) %MON exf_precip_mean              =   7.3540592636721E-08
(PID.TID 0000.0001) %MON exf_precip_sd                =   2.0697855189475E-07
(PID.TID 0000.0001) %MON exf_precip_del2              =   6.8252943180784E-11
(PID.TID 0000.0001) %MON exf_swflux_max               =   0.0000000000000E+00
(PID.TID 0000.0001) %MON exf_swflux_min               =   0.0000000000000E+00
(PID.TID 0000.0001) %MON exf_swflux_mean              =   0.0000000000000E+00
(PID.TID 0000.0001) %MON exf_swflux_sd                =   0.0000000000000E+00
(PID.TID 0000.0001) %MON exf_swflux_del2              =   0.0000000000000E+00
(PID.TID 0000.0001) %MON exf_swdown_max               =   0.0000000000000E+00
(PID.TID 0000.0001) %MON exf_swdown_min               =   0.0000000000000E+00
(PID.TID 0000.0001) %MON exf_swdown_mean              =   0.0000000000000E+00
(PID.TID 0000.0001) %MON exf_swdown_sd                =   0.0000000000000E+00
(PID.TID 0000.0001) %MON exf_swdown_del2              =   0.0000000000000E+00
(PID.TID 0000.0001) %MON exf_lwdown_max               =   4.1261462468456E+02
(PID.TID 0000.0001) %MON exf_lwdown_min               =   1.7750074742266E+02
(PID.TID 0000.0001) %MON exf_lwdown_mean              =   3.3783654307856E+02
(PID.TID 0000.0001) %MON exf_lwdown_sd                =   3.7664298044318E+01
(PID.TID 0000.0001) %MON exf_lwdown_del2              =   1.0361334921576E-01
(PID.TID 0000.0001) %MON exf_apressure_max            =   1.0262350682998E+05
(PID.TID 0000.0001) %MON exf_apressure_min            =   9.7955678221736E+04
(PID.TID 0000.0001) %MON exf_apressure_mean           =   1.0119216911787E+05
(PID.TID 0000.0001) %MON exf_apressure_sd             =   1.1452873813068E+03
(PID.TID 0000.0001) %MON exf_apressure_del2           =   3.0919067126980E+01
(PID.TID 0000.0001) %MON exf_runoff_max               =   4.6633690723924E-08
(PID.TID 0000.0001) %MON exf_runoff_min               =   0.0000000000000E+00
(PID.TID 0000.0001) %MON exf_runoff_mean              =   1.6070446344693E-09
(PID.TID 0000.0001) %MON exf_runoff_sd                =   5.4409705936606E-09
(PID.TID 0000.0001) %MON exf_runoff_del2              =   1.7602788524736E-12
(PID.TID 0000.0001) // =======================================================
(PID.TID 0000.0001) // End MONITOR EXF statistics
(PID.TID 0000.0001) // =======================================================
 cg2d: Sum(rhs),rhsMax =  -8.44960120468988E+04  4.19735380904715E-02
 cg2d: Sum(rhs),rhsMax =  -8.33274219421260E+04  4.27337096216552E-02
 cg2d: Sum(rhs),rhsMax =  -8.21510804268919E+04  4.34915807954941E-02
 cg2d: Sum(rhs),rhsMax =  -8.09671382981143E+04  4.42471319967153E-02
 cg2d: Sum(rhs),rhsMax =  -7.97757473765222E+04  4.50003515699627E-02
 cg2d: Sum(rhs),rhsMax =  -7.85770604875097E+04  4.57512274824541E-02
 cg2d: Sum(rhs),rhsMax =  -7.73712314417672E+04  4.64997533752098E-02
 cg2d: Sum(rhs),rhsMax =  -7.61584150158404E+04  4.72459197068953E-02
 cg2d: Sum(rhs),rhsMax =  -7.49387669324852E+04  4.79897236265060E-02
 cg2d: Sum(rhs),rhsMax =  -7.37124438409373E+04  4.87311654671546E-02
 cg2d: Sum(rhs),rhsMax =  -7.24796032969918E+04  4.94702554278871E-02
 cg2d: Sum(rhs),rhsMax =  -7.12404037430035E+04  5.02070029759174E-02
 cg2d: Sum(rhs),rhsMax =  -6.99950044876966E+04  5.09414456911075E-02
 cg2d: Sum(rhs),rhsMax =  -6.87435656858992E+04  5.16736167481159E-02
 cg2d: Sum(rhs),rhsMax =  -6.74862483181045E+04  5.24035624099487E-02
 cg2d: Sum(rhs),rhsMax =  -6.62232141699451E+04  5.31313388505339E-02
 cg2d: Sum(rhs),rhsMax =  -6.49546258115126E+04  5.38570066512208E-02
 cg2d: Sum(rhs),rhsMax =  -6.36806465765874E+04  5.45806483116663E-02
 cg2d: Sum(rhs),rhsMax =  -6.24014405417210E+04  5.53023368862711E-02
 cg2d: Sum(rhs),rhsMax =  -6.11171725052317E+04  5.60221535763616E-02
 cg2d: Sum(rhs),rhsMax =  -5.98280079660672E+04  5.67401710081358E-02
 cg2d: Sum(rhs),rhsMax =  -5.85341131025740E+04  5.74564780116381E-02
 cg2d: Sum(rhs),rhsMax =  -5.72356547511472E+04  5.81711423075912E-02
 cg2d: Sum(rhs),rhsMax =  -5.59328003847888E+04  5.88842360457906E-02
 cg2d: Sum(rhs),rhsMax =  -5.46257180915513E+04  5.95958073475248E-02
 cg2d: Sum(rhs),rhsMax =  -5.33145765528948E+04  6.03059095042520E-02
 cg2d: Sum(rhs),rhsMax =  -5.19995450219447E+04  6.10145676291475E-02
 cg2d: Sum(rhs),rhsMax =  -5.06807933016530E+04  6.17218088452125E-02
 cg2d: Sum(rhs),rhsMax =  -4.93584917228764E+04  6.24276348746007E-02
 cg2d: Sum(rhs),rhsMax =  -4.80328111223630E+04  6.31320520372645E-02
 cg2d: Sum(rhs),rhsMax =  -4.67039228206545E+04  6.38350419706328E-02
 cg2d: Sum(rhs),rhsMax =  -4.53719985999075E+04  6.45365899454493E-02
 cg2d: Sum(rhs),rhsMax =  -4.40372106816423E+04  6.52366635710719E-02
 cg2d: Sum(rhs),rhsMax =  -4.26997317044053E+04  6.59352322389583E-02
 cg2d: Sum(rhs),rhsMax =  -4.13597347013691E+04  6.66322437128084E-02
 cg2d: Sum(rhs),rhsMax =  -4.00173930778584E+04  6.73276462248973E-02
 cg2d: Sum(rhs),rhsMax =  -3.86728805888087E+04  6.80213754522364E-02
 cg2d: Sum(rhs),rhsMax =  -3.73263713161599E+04  6.87133665545367E-02
 cg2d: Sum(rhs),rhsMax =  -3.59780396462006E+04  6.94035228001921E-02
 cg2d: Sum(rhs),rhsMax =  -3.46280602468352E+04  7.00917520685287E-02
 cg2d: Sum(rhs),rhsMax =  -3.32766080448164E+04  7.07779588538466E-02
 cg2d: Sum(rhs),rhsMax =  -3.19238582029130E+04  7.14620169714724E-02
 cg2d: Sum(rhs),rhsMax =  -3.05699860970366E+04  7.21437955336110E-02
 cg2d: Sum(rhs),rhsMax =  -2.92151672933136E+04  7.28231631313331E-02
 cg2d: Sum(rhs),rhsMax =  -2.78595775251324E+04  7.34999584928806E-02
(PID.TID 0000.0001)      cg2d_init_res =   1.08601547279254E+00
(PID.TID 0000.0001)      cg2d_iters(min,last) =      -1     154
(PID.TID 0000.0001)      cg2d_last_res =   1.80805889637044E-11
(PID.TID 0000.0001) // =======================================================
(PID.TID 0000.0001) // Begin MONITOR dynamic field statistics
(PID.TID 0000.0001) // =======================================================
(PID.TID 0000.0001) %MON time_tsnumber                =              15812505
(PID.TID 0000.0001) %MON time_secondsf                =   1.2650004000000E+09
(PID.TID 0000.0001) %MON dynstat_eta_max              =   1.5196721622852E+00
(PID.TID 0000.0001) %MON dynstat_eta_min              =  -1.1960597775121E+00
(PID.TID 0000.0001) %MON dynstat_eta_mean             =   1.0528739868887E-01
(PID.TID 0000.0001) %MON dynstat_eta_sd               =   4.1087638690042E-01
(PID.TID 0000.0001) %MON dynstat_eta_del2             =   1.1131966419666E-06
(PID.TID 0000.0001) %MON dynstat_uvel_max             =   2.8709969204920E+00
(PID.TID 0000.0001) %MON dynstat_uvel_min             =  -2.7025450616012E+00
(PID.TID 0000.0001) %MON dynstat_uvel_mean            =   3.5393330201269E-03
(PID.TID 0000.0001) %MON dynstat_uvel_sd              =   9.3755024504780E-02
(PID.TID 0000.0001) %MON dynstat_uvel_del2            =   1.8728164822305E-06
(PID.TID 0000.0001) %MON dynstat_vvel_max             =   2.8495560331649E+00
(PID.TID 0000.0001) %MON dynstat_vvel_min             =  -2.6408634943141E+00
(PID.TID 0000.0001) %MON dynstat_vvel_mean            =  -8.6488824149678E-03
(PID.TID 0000.0001) %MON dynstat_vvel_sd              =   8.6835377074995E-02
(PID.TID 0000.0001) %MON dynstat_vvel_del2            =   1.7491498705653E-06
(PID.TID 0000.0001) %MON dynstat_wvel_max             =   4.4103666355308E-02
(PID.TID 0000.0001) %MON dynstat_wvel_min             =  -3.3524679374211E-02
(PID.TID 0000.0001) %MON dynstat_wvel_mean            =  -3.9189157922972E-05
(PID.TID 0000.0001) %MON dynstat_wvel_sd              =   1.6644569888899E-03
(PID.TID 0000.0001) %MON dynstat_wvel_del2            =   9.7086410465097E-08
(PID.TID 0000.0001) %MON dynstat_theta_max            =   2.4968581352261E+01
(PID.TID 0000.0001) %MON dynstat_theta_min            =  -2.7092270126300E+00
(PID.TID 0000.0001) %MON dynstat_theta_mean           =   5.5822888897855E+00
(PID.TID 0000.0001) %MON dynstat_theta_sd             =   4.6751786057537E+00
(PID.TID 0000.0001) %MON dynstat_theta_del2           =   7.4337413450090E-06
(PID.TID 0000.0001) %MON dynstat_salt_max             =   8.9604434385479E+01
(PID.TID 0000.0001) %MON dynstat_salt_min             =   2.0157292242879E+00
(PID.TID 0000.0001) %MON dynstat_salt_mean            =   3.5191364471228E+01
(PID.TID 0000.0001) %MON dynstat_salt_sd              =   4.5280326487273E-01
(PID.TID 0000.0001) %MON dynstat_salt_del2            =   1.4769669700649E-06
(PID.TID 0000.0001) %MON dynstat_sst_max              =   2.4957087741012E+01
(PID.TID 0000.0001) %MON dynstat_sst_min              =  -2.7092270126300E+00
(PID.TID 0000.0001) %MON dynstat_sst_mean             =   1.7672241142657E+01
(PID.TID 0000.0001) %MON dynstat_sst_sd               =   3.3907694124772E+00
(PID.TID 0000.0001) %MON dynstat_sst_del2             =   8.8523605214648E-05
(PID.TID 0000.0001) %MON dynstat_sss_max              =   8.9604434385479E+01
(PID.TID 0000.0001) %MON dynstat_sss_min              =   2.0157292242879E+00
(PID.TID 0000.0001) %MON dynstat_sss_mean             =   3.6425264792079E+01
(PID.TID 0000.0001) %MON dynstat_sss_sd               =   4.5246315217291E-01
(PID.TID 0000.0001) %MON dynstat_sss_del2             =   1.6921506444741E-05
(PID.TID 0000.0001) %MON forcing_qnet_max             =   1.6777204728673E+03
(PID.TID 0000.0001) %MON forcing_qnet_min             =  -5.9011665010230E+02
(PID.TID 0000.0001) %MON forcing_qnet_mean            =   3.2549533043442E+02
(PID.TID 0000.0001) %MON forcing_qnet_sd              =   2.8197134055264E+02
(PID.TID 0000.0001) %MON forcing_qnet_del2            =   6.0340876029443E-03
(PID.TID 0000.0001) %MON forcing_qsw_max              =   0.0000000000000E+00
(PID.TID 0000.0001) %MON forcing_qsw_min              =   0.0000000000000E+00
(PID.TID 0000.0001) %MON forcing_qsw_mean             =   0.0000000000000E+00
(PID.TID 0000.0001) %MON forcing_qsw_sd               =   0.0000000000000E+00
(PID.TID 0000.0001) %MON forcing_qsw_del2             =   0.0000000000000E+00
(PID.TID 0000.0001) %MON forcing_empmr_max            =   3.6381202172372E-04
(PID.TID 0000.0001) %MON forcing_empmr_min            =  -2.1193863287554E-03
(PID.TID 0000.0001) %MON forcing_empmr_mean           =   7.6526457695191E-06
(PID.TID 0000.0001) %MON forcing_empmr_sd             =   2.3644887340423E-04
(PID.TID 0000.0001) %MON forcing_empmr_del2           =   1.7161402220083E-09
(PID.TID 0000.0001) %MON forcing_fu_max               =   1.0335873774591E+00
(PID.TID 0000.0001) %MON forcing_fu_min               =  -2.6461380728004E-01
(PID.TID 0000.0001) %MON forcing_fu_mean              =   1.7712818205605E-01
(PID.TID 0000.0001) %MON forcing_fu_sd                =   1.7947069589709E-01
(PID.TID 0000.0001) %MON forcing_fu_del2              =   1.0358022250005E-06
(PID.TID 0000.0001) %MON forcing_fv_max               =   1.0927963557120E+00
(PID.TID 0000.0001) %MON forcing_fv_min               =  -9.4094180757623E-01
(PID.TID 0000.0001) %MON forcing_fv_mean              =  -3.8329458549218E-02
(PID.TID 0000.0001) %MON forcing_fv_sd                =   2.3553074495755E-01
(PID.TID 0000.0001) %MON forcing_fv_del2              =   9.9509134161781E-07
(PID.TID 0000.0001) %MON trAdv_CFL_u_max              =   1.0368600909606E-01
(PID.TID 0000.0001) %MON trAdv_CFL_v_max              =   9.8410163139375E-02
(PID.TID 0000.0001) %MON trAdv_CFL_w_max              =   4.0198011975996E-01
(PID.TID 0000.0001) %MON advcfl_uvel_max              =   1.0368600852488E-01
(PID.TID 0000.0001) %MON advcfl_vvel_max              =   9.8421873041717E-02
(PID.TID 0000.0001) %MON advcfl_wvel_max              =   3.9373496926364E-01
(PID.TID 0000.0001) %MON advcfl_W_hf_max              =   4.0198011975996E-01
(PID.TID 0000.0001) %MON pe_b_mean                    =   2.7136765024854E-03
(PID.TID 0000.0001) %MON ke_max                       =   4.6074798329082E+00
(PID.TID 0000.0001) %MON ke_mean                      =   8.1645158855939E-03
(PID.TID 0000.0001) %MON ke_vol                       =   4.6123795034297E+16
(PID.TID 0000.0001) %MON vort_r_min                   =  -1.9049419530727E-03
(PID.TID 0000.0001) %MON vort_r_max                   =   1.8147435249098E-03
(PID.TID 0000.0001) %MON vort_a_mean                  =   8.2145894867624E-05
(PID.TID 0000.0001) %MON vort_a_sd                    =   1.4019146432150E-05
(PID.TID 0000.0001) %MON vort_p_mean                  =   8.4437925399152E-05
(PID.TID 0000.0001) %MON vort_p_sd                    =   3.4034377789980E-05
(PID.TID 0000.0001) %MON surfExpan_theta_mean         =  -1.0951546360548E-03
(PID.TID 0000.0001) %MON surfExpan_salt_mean          =  -2.3321798353996E-03
(PID.TID 0000.0001) // =======================================================
(PID.TID 0000.0001) // End MONITOR dynamic field statistics
(PID.TID 0000.0001) // =======================================================
(PID.TID 0000.0001) // =======================================================
(PID.TID 0000.0001) // Begin OBCS MONITOR field statistics
(PID.TID 0000.0001) // =======================================================
(PID.TID 0000.0001) %MON obc_E_uVel_max               =   8.8776427328457E-01
(PID.TID 0000.0001) %MON obc_E_uVel_min               =   4.3525921383216E-01
(PID.TID 0000.0001) %MON obc_E_uVel_mean              =   6.4819149575931E-01
(PID.TID 0000.0001) %MON obc_E_uVel_sd                =   1.0086343616802E-01
(PID.TID 0000.0001) %MON obc_E_uVel_Int               =   4.4235510536762E+06
(PID.TID 0000.0001) %MON obc_N_vVel_max               =   2.0280593348472E-01
(PID.TID 0000.0001) %MON obc_N_vVel_min               =  -8.1915042947678E-01
(PID.TID 0000.0001) %MON obc_N_vVel_mean              =   9.0654791670748E-03
(PID.TID 0000.0001) %MON obc_N_vVel_sd                =   3.9570248370921E-02
(PID.TID 0000.0001) %MON obc_N_vVel_Int               =   1.2936116678715E+08
(PID.TID 0000.0001) %MON obc_S_vVel_max               =   1.3000466456698E+00
(PID.TID 0000.0001) %MON obc_S_vVel_min               =  -1.7162854702831E-01
(PID.TID 0000.0001) %MON obc_S_vVel_mean              =  -1.9546607615523E-02
(PID.TID 0000.0001) %MON obc_S_vVel_sd                =   3.0648537771845E-02
(PID.TID 0000.0001) %MON obc_S_vVel_Int               =  -5.9437009793550E+08
(PID.TID 0000.0001) %MON obc_E_theta_max              =   1.5981519699097E+01
(PID.TID 0000.0001) %MON obc_E_theta_min              =   1.3104037284851E+01
(PID.TID 0000.0001) %MON obc_E_theta_mean             =   1.4974089986960E+01
(PID.TID 0000.0001) %MON obc_E_theta_sd               =   6.0075505804650E-01
(PID.TID 0000.0001) %MON obc_N_theta_max              =   1.5721092224121E+01
(PID.TID 0000.0001) %MON obc_N_theta_min              =   9.7373789548874E-01
(PID.TID 0000.0001) %MON obc_N_theta_mean             =   5.3443110148828E+00
(PID.TID 0000.0001) %MON obc_N_theta_sd               =   3.5834807335781E+00
(PID.TID 0000.0001) %MON obc_S_theta_max              =   2.4979528427124E+01
(PID.TID 0000.0001) %MON obc_S_theta_min              =   1.5124862194061E+00
(PID.TID 0000.0001) %MON obc_S_theta_mean             =   5.4273114502690E+00
(PID.TID 0000.0001) %MON obc_S_theta_sd               =   5.1694562801555E+00
(PID.TID 0000.0001) %MON obc_E_salt_max               =   3.8703720092773E+01
(PID.TID 0000.0001) %MON obc_E_salt_min               =   3.6289142608643E+01
(PID.TID 0000.0001) %MON obc_E_salt_mean              =   3.6643778075730E+01
(PID.TID 0000.0001) %MON obc_E_salt_sd                =   5.5037722650442E-01
(PID.TID 0000.0001) %MON obc_N_salt_max               =   3.6066974639893E+01
(PID.TID 0000.0001) %MON obc_N_salt_min               =   3.2878395080566E+01
(PID.TID 0000.0001) %MON obc_N_salt_mean              =   3.5117165924185E+01
(PID.TID 0000.0001) %MON obc_N_salt_sd                =   3.1541903364831E-01
(PID.TID 0000.0001) %MON obc_S_salt_max               =   3.7600940704346E+01
(PID.TID 0000.0001) %MON obc_S_salt_min               =   3.4853485107422E+01
(PID.TID 0000.0001) %MON obc_S_salt_mean              =   3.5185630803177E+01
(PID.TID 0000.0001) %MON obc_S_salt_sd                =   4.9502018312198E-01
(PID.TID 0000.0001) // =======================================================
(PID.TID 0000.0001) // End OBCS MONITOR field statistics
(PID.TID 0000.0001) // =======================================================
(PID.TID 0000.0001) // =======================================================
(PID.TID 0000.0001) // Begin MONITOR ptracer field statistics
(PID.TID 0000.0001) // =======================================================
(PID.TID 0000.0001) %MON trcstat_ptracer01_max        =   0.0000000000000E+00
(PID.TID 0000.0001) %MON trcstat_ptracer01_min        =   0.0000000000000E+00
(PID.TID 0000.0001) %MON trcstat_ptracer01_mean       =   0.0000000000000E+00
(PID.TID 0000.0001) %MON trcstat_ptracer01_sd         =   0.0000000000000E+00
(PID.TID 0000.0001) %MON trcstat_ptracer01_del2       =   0.0000000000000E+00
(PID.TID 0000.0001) %MON trcstat_ptracer02_max        =   0.0000000000000E+00
(PID.TID 0000.0001) %MON trcstat_ptracer02_min        =   0.0000000000000E+00
(PID.TID 0000.0001) %MON trcstat_ptracer02_mean       =   0.0000000000000E+00
(PID.TID 0000.0001) %MON trcstat_ptracer02_sd         =   0.0000000000000E+00
(PID.TID 0000.0001) %MON trcstat_ptracer02_del2       =   0.0000000000000E+00
(PID.TID 0000.0001) // =======================================================
(PID.TID 0000.0001) // End MONITOR ptracer field statistics
(PID.TID 0000.0001) // =======================================================
(PID.TID 0000.0001) // =======================================================
(PID.TID 0000.0001) // Begin MONITOR EXF statistics
(PID.TID 0000.0001) // =======================================================
(PID.TID 0000.0001) %MON exf_tsnumber                 =              15812505
(PID.TID 0000.0001) %MON exf_time_sec                 =   1.2650004000000E+09
(PID.TID 0000.0001) %MON exf_ustress_max              =   1.0517139985278E+00
(PID.TID 0000.0001) %MON exf_ustress_min              =  -2.6453334341128E-01
(PID.TID 0000.0001) %MON exf_ustress_mean             =   1.7720566455139E-01
(PID.TID 0000.0001) %MON exf_ustress_sd               =   1.7982718287469E-01
(PID.TID 0000.0001) %MON exf_ustress_del2             =   1.1309909326110E-06
(PID.TID 0000.0001) %MON exf_vstress_max              =   1.1049022466636E+00
(PID.TID 0000.0001) %MON exf_vstress_min              =  -9.4939516240637E-01
(PID.TID 0000.0001) %MON exf_vstress_mean             =  -3.8359749972974E-02
(PID.TID 0000.0001) %MON exf_vstress_sd               =   2.3591011035707E-01
(PID.TID 0000.0001) %MON exf_vstress_del2             =   1.0982414201103E-06
(PID.TID 0000.0001) %MON exf_hflux_max                =   1.6480581935383E+03
(PID.TID 0000.0001) %MON exf_hflux_min                =  -5.5503219204645E+02
(PID.TID 0000.0001) %MON exf_hflux_mean               =   3.2417046153597E+02
(PID.TID 0000.0001) %MON exf_hflux_sd                 =   2.7359364408158E+02
(PID.TID 0000.0001) %MON exf_hflux_del2               =   1.3049594668601E-01
(PID.TID 0000.0001) %MON exf_sflux_max                =   3.6398024452608E-07
(PID.TID 0000.0001) %MON exf_sflux_min                =  -2.1196424162998E-06
(PID.TID 0000.0001) %MON exf_sflux_mean               =   7.6739411815460E-09
(PID.TID 0000.0001) %MON exf_sflux_sd                 =   2.3674291621459E-07
(PID.TID 0000.0001) %MON exf_sflux_del2               =   7.3396313941201E-11
(PID.TID 0000.0001) %MON exf_uwind_max                =   2.0399860213645E+01
(PID.TID 0000.0001) %MON exf_uwind_min                =  -9.1819635613968E+00
(PID.TID 0000.0001) %MON exf_uwind_mean               =   6.9839620577892E+00
(PID.TID 0000.0001) %MON exf_uwind_sd                 =   5.2586856623214E+00
(PID.TID 0000.0001) %MON exf_uwind_del2               =   2.6937033591316E-03
(PID.TID 0000.0001) %MON exf_vwind_max                =   2.1521155569948E+01
(PID.TID 0000.0001) %MON exf_vwind_min                =  -1.7903697904711E+01
(PID.TID 0000.0001) %MON exf_vwind_mean               =  -1.2508530396032E+00
(PID.TID 0000.0001) %MON exf_vwind_sd                 =   8.6899662651695E+00
(PID.TID 0000.0001) %MON exf_vwind_del2               =   2.7040968528567E-03
(PID.TID 0000.0001) %MON exf_wspeed_max               =   2.2253814797281E+01
(PID.TID 0000.0001) %MON exf_wspeed_min               =   2.6782503225087E-02
(PID.TID 0000.0001) %MON exf_wspeed_mean              =   1.1579922866087E+01
(PID.TID 0000.0001) %MON exf_wspeed_sd                =   4.4062494654402E+00
(PID.TID 0000.0001) %MON exf_wspeed_del2              =   3.8166049361967E-03
(PID.TID 0000.0001) %MON exf_atemp_max                =   2.9664075249264E+02
(PID.TID 0000.0001) %MON exf_atemp_min                =   2.6327796290683E+02
(PID.TID 0000.0001) %MON exf_atemp_mean               =   2.8859111538063E+02
(PID.TID 0000.0001) %MON exf_atemp_sd                 =   4.9132970035799E+00
(PID.TID 0000.0001) %MON exf_atemp_del2               =   4.9121636578354E-03
(PID.TID 0000.0001) %MON exf_aqh_max                  =   1.5160453865121E-02
(PID.TID 0000.0001) %MON exf_aqh_min                  =   1.1235493769605E-03
(PID.TID 0000.0001) %MON exf_aqh_mean                 =   8.4203295105015E-03
(PID.TID 0000.0001) %MON exf_aqh_sd                   =   2.8009369380978E-03
(PID.TID 0000.0001) %MON exf_aqh_del2                 =   2.6989190550904E-06
(PID.TID 0000.0001) %MON exf_lwflux_max               =   1.7318291780300E+02
(PID.TID 0000.0001) %MON exf_lwflux_min               =  -3.9449709721815E+01
(PID.TID 0000.0001) %MON exf_lwflux_mean              =   6.6238777742807E+01
(PID.TID 0000.0001) %MON exf_lwflux_sd                =   3.0434970186705E+01
(PID.TID 0000.0001) %MON exf_lwflux_del2              =   2.2360240919984E-02
(PID.TID 0000.0001) %MON exf_evap_max                 =   4.0611900812791E-07
(PID.TID 0000.0001) %MON exf_evap_min                 =  -1.3870865212481E-07
(PID.TID 0000.0001) %MON exf_evap_mean                =   8.3790262125669E-08
(PID.TID 0000.0001) %MON exf_evap_sd                  =   7.0188270720471E-08
(PID.TID 0000.0001) %MON exf_evap_del2                =   3.3499702947172E-11
(PID.TID 0000.0001) %MON exf_precip_max               =   2.1387886975828E-06
(PID.TID 0000.0001) %MON exf_precip_min               =   0.0000000000000E+00
(PID.TID 0000.0001) %MON exf_precip_mean              =   7.4509276309653E-08
(PID.TID 0000.0001) %MON exf_precip_sd                =   2.1684282610768E-07
(PID.TID 0000.0001) %MON exf_precip_del2              =   7.1247966259274E-11
(PID.TID 0000.0001) %MON exf_swflux_max               =   0.0000000000000E+00
(PID.TID 0000.0001) %MON exf_swflux_min               =   0.0000000000000E+00
(PID.TID 0000.0001) %MON exf_swflux_mean              =   0.0000000000000E+00
(PID.TID 0000.0001) %MON exf_swflux_sd                =   0.0000000000000E+00
(PID.TID 0000.0001) %MON exf_swflux_del2              =   0.0000000000000E+00
(PID.TID 0000.0001) %MON exf_swdown_max               =   0.0000000000000E+00
(PID.TID 0000.0001) %MON exf_swdown_min               =   0.0000000000000E+00
(PID.TID 0000.0001) %MON exf_swdown_mean              =   0.0000000000000E+00
(PID.TID 0000.0001) %MON exf_swdown_sd                =   0.0000000000000E+00
(PID.TID 0000.0001) %MON exf_swdown_del2              =   0.0000000000000E+00
(PID.TID 0000.0001) %MON exf_lwdown_max               =   4.1455153677031E+02
(PID.TID 0000.0001) %MON exf_lwdown_min               =   1.7559103157287E+02
(PID.TID 0000.0001) %MON exf_lwdown_mean              =   3.3763631828413E+02
(PID.TID 0000.0001) %MON exf_lwdown_sd                =   3.7051348056068E+01
(PID.TID 0000.0001) %MON exf_lwdown_del2              =   1.0353423180730E-01
(PID.TID 0000.0001) %MON exf_apressure_max            =   1.0262642788125E+05
(PID.TID 0000.0001) %MON exf_apressure_min            =   9.7956253721249E+04
(PID.TID 0000.0001) %MON exf_apressure_mean           =   1.0118087728455E+05
(PID.TID 0000.0001) %MON exf_apressure_sd             =   1.1515183657884E+03
(PID.TID 0000.0001) %MON exf_apressure_del2           =   3.0915864963738E+01
(PID.TID 0000.0001) %MON exf_runoff_max               =   4.6633690723924E-08
(PID.TID 0000.0001) %MON exf_runoff_min               =   0.0000000000000E+00
(PID.TID 0000.0001) %MON exf_runoff_mean              =   1.6070446344693E-09
(PID.TID 0000.0001) %MON exf_runoff_sd                =   5.4409705936606E-09
(PID.TID 0000.0001) %MON exf_runoff_del2              =   1.7602788524736E-12
(PID.TID 0000.0001) // =======================================================
(PID.TID 0000.0001) // End MONITOR EXF statistics
(PID.TID 0000.0001) // =======================================================
 cg2d: Sum(rhs),rhsMax =  -2.65033926701293E+04  7.41740140224802E-02
 cg2d: Sum(rhs),rhsMax =  -2.51467887271593E+04  7.48451569885994E-02
 cg2d: Sum(rhs),rhsMax =  -2.37899417932178E+04  7.55131820699806E-02
 cg2d: Sum(rhs),rhsMax =  -2.24330280403454E+04  7.61778751401759E-02
 cg2d: Sum(rhs),rhsMax =  -2.10762236924907E+04  7.68390155322157E-02
 cg2d: Sum(rhs),rhsMax =  -1.97197050023746E+04  7.74963597029304E-02
 cg2d: Sum(rhs),rhsMax =  -1.83636482283013E+04  7.81496580573809E-02
 cg2d: Sum(rhs),rhsMax =  -1.70082296109860E+04  7.87986503972259E-02
 cg2d: Sum(rhs),rhsMax =  -1.56536253503425E+04  7.94430751897370E-02
 cg2d: Sum(rhs),rhsMax =  -1.43000115822785E+04  8.00826592134538E-02
 cg2d: Sum(rhs),rhsMax =  -1.29475643554653E+04  8.07171286726369E-02
 cg2d: Sum(rhs),rhsMax =  -1.15964596081295E+04  8.13462067828059E-02
 cg2d: Sum(rhs),rhsMax =  -1.02468731448123E+04  8.19696040093013E-02
 cg2d: Sum(rhs),rhsMax =  -8.89898061315978E+03  8.25870276624487E-02
 cg2d: Sum(rhs),rhsMax =  -7.55295748069849E+03  8.31981829012942E-02
 cg2d: Sum(rhs),rhsMax =  -6.20897901163351E+03  8.38027683828838E-02
 cg2d: Sum(rhs),rhsMax =  -4.86722024364467E+03  8.44004861501215E-02
 cg2d: Sum(rhs),rhsMax =  -3.52785596471819E+03  8.49910436423861E-02
 cg2d: Sum(rhs),rhsMax =  -2.19106068997301E+03  8.55741510749077E-02
 cg2d: Sum(rhs),rhsMax =  -8.57008638530893E+02  8.61495267999796E-02
 cg2d: Sum(rhs),rhsMax =   4.74126289603565E+02  8.67168948652966E-02
 cg2d: Sum(rhs),rhsMax =   1.80217053662537E+03  8.72759692410859E-02
 cg2d: Sum(rhs),rhsMax =   3.12695090998757E+03  8.78264910299681E-02
 cg2d: Sum(rhs),rhsMax =   4.44829460541300E+03  8.83682114603099E-02
 cg2d: Sum(rhs),rhsMax =   5.76602922988305E+03  8.89008831830197E-02
 cg2d: Sum(rhs),rhsMax =   7.07998282456990E+03  8.94242743045748E-02
 cg2d: Sum(rhs),rhsMax =   8.38998388773414E+03  8.99463151005254E-02
 cg2d: Sum(rhs),rhsMax =   9.69586139756908E+03  9.04620379805843E-02
 cg2d: Sum(rhs),rhsMax =   1.09974448349985E+04  9.09675559243269E-02
 cg2d: Sum(rhs),rhsMax =   1.22945642064096E+04  9.14626353147448E-02
 cg2d: Sum(rhs),rhsMax =   1.35870500663422E+04  9.19470572482328E-02
 cg2d: Sum(rhs),rhsMax =   1.48747335401032E+04  9.24206200874024E-02
 cg2d: Sum(rhs),rhsMax =   1.61574463463260E+04  9.28831394387179E-02
 cg2d: Sum(rhs),rhsMax =   1.74350208194555E+04  9.33344506852616E-02
 cg2d: Sum(rhs),rhsMax =   1.87072899321708E+04  9.37744178081184E-02
 cg2d: Sum(rhs),rhsMax =   1.99740873177184E+04  9.42029177716849E-02
 cg2d: Sum(rhs),rhsMax =   2.12352472921881E+04  9.46198466275039E-02
 cg2d: Sum(rhs),rhsMax =   2.24906048766871E+04  9.50251237771824E-02
 cg2d: Sum(rhs),rhsMax =   2.37399958194485E+04  9.54217123547662E-02
 cg2d: Sum(rhs),rhsMax =   2.49832566178383E+04  9.58145853372782E-02
 cg2d: Sum(rhs),rhsMax =   2.62202245402838E+04  9.61946549654989E-02
 cg2d: Sum(rhs),rhsMax =   2.74507376480944E+04  9.65618982709985E-02
 cg2d: Sum(rhs),rhsMax =   2.86746348172029E+04  9.69163184940425E-02
 cg2d: Sum(rhs),rhsMax =   2.98917557597897E+04  9.72579443926121E-02
 cg2d: Sum(rhs),rhsMax =   3.11019410458175E+04  9.75868292147335E-02
(PID.TID 0000.0001)      cg2d_init_res =   1.12949331686374E+00
(PID.TID 0000.0001)      cg2d_iters(min,last) =      -1     154
(PID.TID 0000.0001)      cg2d_last_res =   1.87296383525951E-11
(PID.TID 0000.0001) // =======================================================
(PID.TID 0000.0001) // Begin MONITOR dynamic field statistics
(PID.TID 0000.0001) // =======================================================
(PID.TID 0000.0001) %MON time_tsnumber                =              15812550
(PID.TID 0000.0001) %MON time_secondsf                =   1.2650040000000E+09
(PID.TID 0000.0001) %MON dynstat_eta_max              =   9.7302341808569E-01
(PID.TID 0000.0001) %MON dynstat_eta_min              =  -1.4416541234433E+00
(PID.TID 0000.0001) %MON dynstat_eta_mean             =  -1.1754099515452E-01
(PID.TID 0000.0001) %MON dynstat_eta_sd               =   3.2708432185150E-01
(PID.TID 0000.0001) %MON dynstat_eta_del2             =   1.1410798482324E-06
(PID.TID 0000.0001) %MON dynstat_uvel_max             =   2.8677821258935E+00
(PID.TID 0000.0001) %MON dynstat_uvel_min             =  -2.7116408080782E+00
(PID.TID 0000.0001) %MON dynstat_uvel_mean            =  -5.3845907305759E-03
(PID.TID 0000.0001) %MON dynstat_uvel_sd              =   9.4029066668255E-02
(PID.TID 0000.0001) %MON dynstat_uvel_del2            =   1.8692422465772E-06
(PID.TID 0000.0001) %MON dynstat_vvel_max             =   2.8558748632904E+00
(PID.TID 0000.0001) %MON dynstat_vvel_min             =  -2.6368876398200E+00
(PID.TID 0000.0001) %MON dynstat_vvel_mean            =  -1.2459396371296E-02
(PID.TID 0000.0001) %MON dynstat_vvel_sd              =   8.6758625545018E-02
(PID.TID 0000.0001) %MON dynstat_vvel_del2            =   1.7471771407776E-06
(PID.TID 0000.0001) %MON dynstat_wvel_max             =   4.4670897226482E-02
(PID.TID 0000.0001) %MON dynstat_wvel_min             =  -3.4546095953680E-02
(PID.TID 0000.0001) %MON dynstat_wvel_mean            =  -3.5685788595138E-05
(PID.TID 0000.0001) %MON dynstat_wvel_sd              =   1.6661596131682E-03
(PID.TID 0000.0001) %MON dynstat_wvel_del2            =   9.7406188477653E-08
(PID.TID 0000.0001) %MON dynstat_theta_max            =   2.4969007859962E+01
(PID.TID 0000.0001) %MON dynstat_theta_min            =  -2.7254105410151E+00
(PID.TID 0000.0001) %MON dynstat_theta_mean           =   5.5828458535765E+00
(PID.TID 0000.0001) %MON dynstat_theta_sd             =   4.6756651005931E+00
(PID.TID 0000.0001) %MON dynstat_theta_del2           =   7.4412239908021E-06
(PID.TID 0000.0001) %MON dynstat_salt_max             =   8.9609609395934E+01
(PID.TID 0000.0001) %MON dynstat_salt_min             =   2.0157413638881E+00
(PID.TID 0000.0001) %MON dynstat_salt_mean            =   3.5191429471303E+01
(PID.TID 0000.0001) %MON dynstat_salt_sd              =   4.5288699531919E-01
(PID.TID 0000.0001) %MON dynstat_salt_del2            =   1.4794429628236E-06
(PID.TID 0000.0001) %MON dynstat_sst_max              =   2.4957906270064E+01
(PID.TID 0000.0001) %MON dynstat_sst_min              =  -2.7254105410151E+00
(PID.TID 0000.0001) %MON dynstat_sst_mean             =   1.7667303917008E+01
(PID.TID 0000.0001) %MON dynstat_sst_sd               =   3.3914826859518E+00
(PID.TID 0000.0001) %MON dynstat_sst_del2             =   8.8729408288852E-05
(PID.TID 0000.0001) %MON dynstat_sss_max              =   8.9609609395934E+01
(PID.TID 0000.0001) %MON dynstat_sss_min              =   2.0157413638881E+00
(PID.TID 0000.0001) %MON dynstat_sss_mean             =   3.6425069359631E+01
(PID.TID 0000.0001) %MON dynstat_sss_sd               =   4.5281513291279E-01
(PID.TID 0000.0001) %MON dynstat_sss_del2             =   1.6971267081041E-05
(PID.TID 0000.0001) %MON forcing_qnet_max             =   1.7106698135272E+03
(PID.TID 0000.0001) %MON forcing_qnet_min             =  -6.6765920479523E+02
(PID.TID 0000.0001) %MON forcing_qnet_mean            =   3.2767703462889E+02
(PID.TID 0000.0001) %MON forcing_qnet_sd              =   2.7976639798471E+02
(PID.TID 0000.0001) %MON forcing_qnet_del2            =   6.0457444872274E-03
(PID.TID 0000.0001) %MON forcing_qsw_max              =   0.0000000000000E+00
(PID.TID 0000.0001) %MON forcing_qsw_min              =   0.0000000000000E+00
(PID.TID 0000.0001) %MON forcing_qsw_mean             =   0.0000000000000E+00
(PID.TID 0000.0001) %MON forcing_qsw_sd               =   0.0000000000000E+00
(PID.TID 0000.0001) %MON forcing_qsw_del2             =   0.0000000000000E+00
(PID.TID 0000.0001) %MON forcing_empmr_max            =   3.7753471179195E-04
(PID.TID 0000.0001) %MON forcing_empmr_min            =  -2.5934549576076E-03
(PID.TID 0000.0001) %MON forcing_empmr_mean           =   9.4402961531590E-06
(PID.TID 0000.0001) %MON forcing_empmr_sd             =   2.4158425378562E-04
(PID.TID 0000.0001) %MON forcing_empmr_del2           =   1.7313941921199E-09
(PID.TID 0000.0001) %MON forcing_fu_max               =   9.8590211370323E-01
(PID.TID 0000.0001) %MON forcing_fu_min               =  -2.2336521573329E-01
(PID.TID 0000.0001) %MON forcing_fu_mean              =   1.7715285377257E-01
(PID.TID 0000.0001) %MON forcing_fu_sd                =   1.7909973320663E-01
(PID.TID 0000.0001) %MON forcing_fu_del2              =   1.0357206646460E-06
(PID.TID 0000.0001) %MON forcing_fv_max               =   1.1124143122964E+00
(PID.TID 0000.0001) %MON forcing_fv_min               =  -9.6271987681870E-01
(PID.TID 0000.0001) %MON forcing_fv_mean              =  -4.2627844009315E-02
(PID.TID 0000.0001) %MON forcing_fv_sd                =   2.3710901740595E-01
(PID.TID 0000.0001) %MON forcing_fv_del2              =   9.9436322215965E-07
(PID.TID 0000.0001) %MON trAdv_CFL_u_max              =   1.0822543499922E-01
(PID.TID 0000.0001) %MON trAdv_CFL_v_max              =   9.8628366956503E-02
(PID.TID 0000.0001) %MON trAdv_CFL_w_max              =   3.4923188504551E-01
(PID.TID 0000.0001) %MON advcfl_uvel_max              =   1.0822543440304E-01
(PID.TID 0000.0001) %MON advcfl_vvel_max              =   9.8640121459768E-02
(PID.TID 0000.0001) %MON advcfl_wvel_max              =   3.4341135362808E-01
(PID.TID 0000.0001) %MON advcfl_W_hf_max              =   3.4923188504551E-01
(PID.TID 0000.0001) %MON pe_b_mean                    =  -2.7372533719444E-03
(PID.TID 0000.0001) %MON ke_max                       =   4.5617969710082E+00
(PID.TID 0000.0001) %MON ke_mean                      =   8.2316557623596E-03
(PID.TID 0000.0001) %MON ke_vol                       =   4.6123795034297E+16
(PID.TID 0000.0001) %MON vort_r_min                   =  -2.0373000232050E-03
(PID.TID 0000.0001) %MON vort_r_max                   =   1.8869078957408E-03
(PID.TID 0000.0001) %MON vort_a_mean                  =   8.2145893335878E-05
(PID.TID 0000.0001) %MON vort_a_sd                    =   1.4032462674056E-05
(PID.TID 0000.0001) %MON vort_p_mean                  =   8.4437923824668E-05
(PID.TID 0000.0001) %MON vort_p_sd                    =   3.4083390503271E-05
(PID.TID 0000.0001) %MON surfExpan_theta_mean         =  -9.4507459270555E-04
(PID.TID 0000.0001) %MON surfExpan_salt_mean          =  -2.0798346472830E-03
(PID.TID 0000.0001) // =======================================================
(PID.TID 0000.0001) // End MONITOR dynamic field statistics
(PID.TID 0000.0001) // =======================================================
(PID.TID 0000.0001) // =======================================================
(PID.TID 0000.0001) // Begin OBCS MONITOR field statistics
(PID.TID 0000.0001) // =======================================================
(PID.TID 0000.0001) %MON obc_E_uVel_max               =   8.4295005829312E-01
(PID.TID 0000.0001) %MON obc_E_uVel_min               =   3.8683704356334E-01
(PID.TID 0000.0001) %MON obc_E_uVel_mean              =   6.0030498613801E-01
(PID.TID 0000.0001) %MON obc_E_uVel_sd                =   1.0140045527494E-01
(PID.TID 0000.0001) %MON obc_E_uVel_Int               =   4.0967519187322E+06
(PID.TID 0000.0001) %MON obc_N_vVel_max               =   1.9403981555563E-01
(PID.TID 0000.0001) %MON obc_N_vVel_min               =  -9.6119111165088E-01
(PID.TID 0000.0001) %MON obc_N_vVel_mean              =   1.6785627579469E-03
(PID.TID 0000.0001) %MON obc_N_vVel_sd                =   3.9095991870572E-02
(PID.TID 0000.0001) %MON obc_N_vVel_Int               =   2.3952494169543E+07
(PID.TID 0000.0001) %MON obc_S_vVel_max               =   1.3231239500507E+00
(PID.TID 0000.0001) %MON obc_S_vVel_min               =  -1.7878721460168E-01
(PID.TID 0000.0001) %MON obc_S_vVel_mean              =  -2.0455303515132E-02
(PID.TID 0000.0001) %MON obc_S_vVel_sd                =   3.2131575099224E-02
(PID.TID 0000.0001) %MON obc_S_vVel_Int               =  -6.2200157657712E+08
(PID.TID 0000.0001) %MON obc_E_theta_max              =   1.5981519699097E+01
(PID.TID 0000.0001) %MON obc_E_theta_min              =   1.3104037284851E+01
(PID.TID 0000.0001) %MON obc_E_theta_mean             =   1.4974089986960E+01
(PID.TID 0000.0001) %MON obc_E_theta_sd               =   6.0075505804650E-01
(PID.TID 0000.0001) %MON obc_N_theta_max              =   1.5721092224121E+01
(PID.TID 0000.0001) %MON obc_N_theta_min              =   9.7373789548874E-01
(PID.TID 0000.0001) %MON obc_N_theta_mean             =   5.3443110148828E+00
(PID.TID 0000.0001) %MON obc_N_theta_sd               =   3.5834807335781E+00
(PID.TID 0000.0001) %MON obc_S_theta_max              =   2.4979528427124E+01
(PID.TID 0000.0001) %MON obc_S_theta_min              =   1.5124862194061E+00
(PID.TID 0000.0001) %MON obc_S_theta_mean             =   5.4273114502690E+00
(PID.TID 0000.0001) %MON obc_S_theta_sd               =   5.1694562801555E+00
(PID.TID 0000.0001) %MON obc_E_salt_max               =   3.8703720092773E+01
(PID.TID 0000.0001) %MON obc_E_salt_min               =   3.6289142608643E+01
(PID.TID 0000.0001) %MON obc_E_salt_mean              =   3.6643778075730E+01
(PID.TID 0000.0001) %MON obc_E_salt_sd                =   5.5037722650442E-01
(PID.TID 0000.0001) %MON obc_N_salt_max               =   3.6066974639893E+01
(PID.TID 0000.0001) %MON obc_N_salt_min               =   3.2878395080566E+01
(PID.TID 0000.0001) %MON obc_N_salt_mean              =   3.5117165924185E+01
(PID.TID 0000.0001) %MON obc_N_salt_sd                =   3.1541903364831E-01
(PID.TID 0000.0001) %MON obc_S_salt_max               =   3.7600940704346E+01
(PID.TID 0000.0001) %MON obc_S_salt_min               =   3.4853485107422E+01
(PID.TID 0000.0001) %MON obc_S_salt_mean              =   3.5185630803177E+01
(PID.TID 0000.0001) %MON obc_S_salt_sd                =   4.9502018312198E-01
(PID.TID 0000.0001) // =======================================================
(PID.TID 0000.0001) // End OBCS MONITOR field statistics
(PID.TID 0000.0001) // =======================================================
(PID.TID 0000.0001) // =======================================================
(PID.TID 0000.0001) // Begin MONITOR ptracer field statistics
(PID.TID 0000.0001) // =======================================================
(PID.TID 0000.0001) %MON trcstat_ptracer01_max        =   0.0000000000000E+00
(PID.TID 0000.0001) %MON trcstat_ptracer01_min        =   0.0000000000000E+00
(PID.TID 0000.0001) %MON trcstat_ptracer01_mean       =   0.0000000000000E+00
(PID.TID 0000.0001) %MON trcstat_ptracer01_sd         =   0.0000000000000E+00
(PID.TID 0000.0001) %MON trcstat_ptracer01_del2       =   0.0000000000000E+00
(PID.TID 0000.0001) %MON trcstat_ptracer02_max        =   0.0000000000000E+00
(PID.TID 0000.0001) %MON trcstat_ptracer02_min        =   0.0000000000000E+00
(PID.TID 0000.0001) %MON trcstat_ptracer02_mean       =   0.0000000000000E+00
(PID.TID 0000.0001) %MON trcstat_ptracer02_sd         =   0.0000000000000E+00
(PID.TID 0000.0001) %MON trcstat_ptracer02_del2       =   0.0000000000000E+00
(PID.TID 0000.0001) // =======================================================
(PID.TID 0000.0001) // End MONITOR ptracer field statistics
(PID.TID 0000.0001) // =======================================================
(PID.TID 0000.0001) // =======================================================
(PID.TID 0000.0001) // Begin MONITOR EXF statistics
(PID.TID 0000.0001) // =======================================================
(PID.TID 0000.0001) %MON exf_tsnumber                 =              15812550
(PID.TID 0000.0001) %MON exf_time_sec                 =   1.2650040000000E+09
(PID.TID 0000.0001) %MON exf_ustress_max              =   1.0006636763022E+00
(PID.TID 0000.0001) %MON exf_ustress_min              =  -2.2340442670350E-01
(PID.TID 0000.0001) %MON exf_ustress_mean             =   1.7720121025665E-01
(PID.TID 0000.0001) %MON exf_ustress_sd               =   1.7941384502913E-01
(PID.TID 0000.0001) %MON exf_ustress_del2             =   1.1316863843003E-06
(PID.TID 0000.0001) %MON exf_vstress_max              =   1.1235971391936E+00
(PID.TID 0000.0001) %MON exf_vstress_min              =  -9.6571721561300E-01
(PID.TID 0000.0001) %MON exf_vstress_mean             =  -4.2666559224437E-02
(PID.TID 0000.0001) %MON exf_vstress_sd               =   2.3747419692033E-01
(PID.TID 0000.0001) %MON exf_vstress_del2             =   1.0997415072872E-06
(PID.TID 0000.0001) %MON exf_hflux_max                =   1.6777744079870E+03
(PID.TID 0000.0001) %MON exf_hflux_min                =  -6.1398619157568E+02
(PID.TID 0000.0001) %MON exf_hflux_mean               =   3.2615567032122E+02
(PID.TID 0000.0001) %MON exf_hflux_sd                 =   2.7142618868974E+02
(PID.TID 0000.0001) %MON exf_hflux_del2               =   1.3063788754583E-01
(PID.TID 0000.0001) %MON exf_sflux_max                =   3.7776237387847E-07
(PID.TID 0000.0001) %MON exf_sflux_min                =  -2.6298739668842E-06
(PID.TID 0000.0001) %MON exf_sflux_mean               =   9.5460769260433E-09
(PID.TID 0000.0001) %MON exf_sflux_sd                 =   2.4154975227161E-07
(PID.TID 0000.0001) %MON exf_sflux_del2               =   7.4939632991904E-11
(PID.TID 0000.0001) %MON exf_uwind_max                =   2.0728707678625E+01
(PID.TID 0000.0001) %MON exf_uwind_min                =  -8.8214311392065E+00
(PID.TID 0000.0001) %MON exf_uwind_mean               =   6.9726370863363E+00
(PID.TID 0000.0001) %MON exf_uwind_sd                 =   5.2504204223131E+00
(PID.TID 0000.0001) %MON exf_uwind_del2               =   2.6897962380645E-03
(PID.TID 0000.0001) %MON exf_vwind_max                =   2.1687865840093E+01
(PID.TID 0000.0001) %MON exf_vwind_min                =  -1.8030998573954E+01
(PID.TID 0000.0001) %MON exf_vwind_mean               =  -1.4236621565411E+00
(PID.TID 0000.0001) %MON exf_vwind_sd                 =   8.6858155197035E+00
(PID.TID 0000.0001) %MON exf_vwind_del2               =   2.7117332547670E-03
(PID.TID 0000.0001) %MON exf_wspeed_max               =   2.2652994203392E+01
(PID.TID 0000.0001) %MON exf_wspeed_min               =   2.4376719760529E-02
(PID.TID 0000.0001) %MON exf_wspeed_mean              =   1.1574820843020E+01
(PID.TID 0000.0001) %MON exf_wspeed_sd                =   4.4360241409490E+00
(PID.TID 0000.0001) %MON exf_wspeed_del2              =   3.8192698791958E-03
(PID.TID 0000.0001) %MON exf_atemp_max                =   2.9657563485799E+02
(PID.TID 0000.0001) %MON exf_atemp_min                =   2.6320155643748E+02
(PID.TID 0000.0001) %MON exf_atemp_mean               =   2.8853284895884E+02
(PID.TID 0000.0001) %MON exf_atemp_sd                 =   4.8999117523869E+00
(PID.TID 0000.0001) %MON exf_atemp_del2               =   4.8938360374124E-03
(PID.TID 0000.0001) %MON exf_aqh_max                  =   1.5048635776901E-02
(PID.TID 0000.0001) %MON exf_aqh_min                  =   1.1277627432769E-03
(PID.TID 0000.0001) %MON exf_aqh_mean                 =   8.3737626524491E-03
(PID.TID 0000.0001) %MON exf_aqh_sd                   =   2.7921304228765E-03
(PID.TID 0000.0001) %MON exf_aqh_del2                 =   2.6842764582747E-06
(PID.TID 0000.0001) %MON exf_lwflux_max               =   1.7390890294616E+02
(PID.TID 0000.0001) %MON exf_lwflux_min               =  -3.9821755687348E+01
(PID.TID 0000.0001) %MON exf_lwflux_mean              =   6.6412038859929E+01
(PID.TID 0000.0001) %MON exf_lwflux_sd                =   2.9929954108166E+01
(PID.TID 0000.0001) %MON exf_lwflux_del2              =   2.2360431914779E-02
(PID.TID 0000.0001) %MON exf_evap_max                 =   4.1440531805387E-07
(PID.TID 0000.0001) %MON exf_evap_min                 =  -1.5501798191348E-07
(PID.TID 0000.0001) %MON exf_evap_mean                =   8.4345286532902E-08
(PID.TID 0000.0001) %MON exf_evap_sd                  =   6.9790111845768E-08
(PID.TID 0000.0001) %MON exf_evap_del2                =   3.3574097230484E-11
(PID.TID 0000.0001) %MON exf_precip_max               =   2.5706051767819E-06
(PID.TID 0000.0001) %MON exf_precip_min               =   0.0000000000000E+00
(PID.TID 0000.0001) %MON exf_precip_mean              =   7.3192164972389E-08
(PID.TID 0000.0001) %MON exf_precip_sd                =   2.2241142792228E-07
(PID.TID 0000.0001) %MON exf_precip_del2              =   7.2770312670679E-11
(PID.TID 0000.0001) %MON exf_swflux_max               =   0.0000000000000E+00
(PID.TID 0000.0001) %MON exf_swflux_min               =   0.0000000000000E+00
(PID.TID 0000.0001) %MON exf_swflux_mean              =   0.0000000000000E+00
(PID.TID 0000.0001) %MON exf_swflux_sd                =   0.0000000000000E+00
(PID.TID 0000.0001) %MON exf_swflux_del2              =   0.0000000000000E+00
(PID.TID 0000.0001) %MON exf_swdown_max               =   0.0000000000000E+00
(PID.TID 0000.0001) %MON exf_swdown_min               =   0.0000000000000E+00
(PID.TID 0000.0001) %MON exf_swdown_mean              =   0.0000000000000E+00
(PID.TID 0000.0001) %MON exf_swdown_sd                =   0.0000000000000E+00
(PID.TID 0000.0001) %MON exf_swdown_del2              =   0.0000000000000E+00
(PID.TID 0000.0001) %MON exf_lwdown_max               =   4.1372945020553E+02
(PID.TID 0000.0001) %MON exf_lwdown_min               =   1.7636433658253E+02
(PID.TID 0000.0001) %MON exf_lwdown_mean              =   3.3743027811897E+02
(PID.TID 0000.0001) %MON exf_lwdown_sd                =   3.6820929636451E+01
(PID.TID 0000.0001) %MON exf_lwdown_del2              =   1.0344745415888E-01
(PID.TID 0000.0001) %MON exf_apressure_max            =   1.0257893933047E+05
(PID.TID 0000.0001) %MON exf_apressure_min            =   9.7960441341229E+04
(PID.TID 0000.0001) %MON exf_apressure_mean           =   1.0117523851228E+05
(PID.TID 0000.0001) %MON exf_apressure_sd             =   1.1492726456757E+03
(PID.TID 0000.0001) %MON exf_apressure_del2           =   3.0914419428510E+01
(PID.TID 0000.0001) %MON exf_runoff_max               =   4.6633690723924E-08
(PID.TID 0000.0001) %MON exf_runoff_min               =   0.0000000000000E+00
(PID.TID 0000.0001) %MON exf_runoff_mean              =   1.6070446344693E-09
(PID.TID 0000.0001) %MON exf_runoff_sd                =   5.4409705936606E-09
(PID.TID 0000.0001) %MON exf_runoff_del2              =   1.7602788524736E-12
(PID.TID 0000.0001) // =======================================================
(PID.TID 0000.0001) // End MONITOR EXF statistics
(PID.TID 0000.0001) // =======================================================
 cg2d: Sum(rhs),rhsMax =   3.23050321244483E+04  9.79037683482005E-02
 cg2d: Sum(rhs),rhsMax =   3.35008713453634E+04  9.82104455218026E-02
 cg2d: Sum(rhs),rhsMax =   3.46893019799536E+04  9.85042474001250E-02
 cg2d: Sum(rhs),rhsMax =   3.58701682424149E+04  9.87853311461305E-02
 cg2d: Sum(rhs),rhsMax =   3.70433153107051E+04  9.90538708632808E-02
 cg2d: Sum(rhs),rhsMax =   3.82085893473933E+04  9.93100580659532E-02
 cg2d: Sum(rhs),rhsMax =   3.93658375203747E+04  9.95541010746202E-02
 cg2d: Sum(rhs),rhsMax =   4.05149080234653E+04  9.97862231257327E-02
 cg2d: Sum(rhs),rhsMax =   4.16556500968540E+04  1.00006660135128E-01
 cg2d: Sum(rhs),rhsMax =   4.27879140474370E+04  1.00215658393510E-01
 cg2d: Sum(rhs),rhsMax =   4.39115512689979E+04  1.00413472538061E-01
 cg2d: Sum(rhs),rhsMax =   4.50264142622620E+04  1.00600364082100E-01
 cg2d: Sum(rhs),rhsMax =   4.61323566547938E+04  1.00776600738566E-01
 cg2d: Sum(rhs),rhsMax =   4.72292332207653E+04  1.00942455336252E-01
 cg2d: Sum(rhs),rhsMax =   4.83168999005513E+04  1.01098205393747E-01
 cg2d: Sum(rhs),rhsMax =   4.93952138202044E+04  1.01244132531375E-01
 cg2d: Sum(rhs),rhsMax =   5.04640333107409E+04  1.01380521537493E-01
 cg2d: Sum(rhs),rhsMax =   5.15232179273010E+04  1.01507659093062E-01
 cg2d: Sum(rhs),rhsMax =   5.25726284681179E+04  1.01628331795525E-01
 cg2d: Sum(rhs),rhsMax =   5.36121269933561E+04  1.01748643080062E-01
 cg2d: Sum(rhs),rhsMax =   5.46415768437455E+04  1.01860828506210E-01
 cg2d: Sum(rhs),rhsMax =   5.56608426590904E+04  1.01965069666419E-01
 cg2d: Sum(rhs),rhsMax =   5.66697903965617E+04  1.02061538311001E-01
 cg2d: Sum(rhs),rhsMax =   5.76682873488561E+04  1.02150394889963E-01
 cg2d: Sum(rhs),rhsMax =   5.86562021621399E+04  1.02231787180367E-01
 cg2d: Sum(rhs),rhsMax =   5.96334048538519E+04  1.02305849062066E-01
 cg2d: Sum(rhs),rhsMax =   6.05997668302808E+04  1.02372699490571E-01
 cg2d: Sum(rhs),rhsMax =   6.15551609040043E+04  1.02432441701546E-01
 cg2d: Sum(rhs),rhsMax =   6.24994613110932E+04  1.02485162665618E-01
 cg2d: Sum(rhs),rhsMax =   6.34325437281721E+04  1.02530932768245E-01
 cg2d: Sum(rhs),rhsMax =   6.43542852892377E+04  1.02569805669410E-01
 cg2d: Sum(rhs),rhsMax =   6.52645646023361E+04  1.02601818269402E-01
 cg2d: Sum(rhs),rhsMax =   6.61632617659843E+04  1.02626990719879E-01
 cg2d: Sum(rhs),rhsMax =   6.70502583854506E+04  1.02645326345719E-01
 cg2d: Sum(rhs),rhsMax =   6.79254375887747E+04  1.02656811732464E-01
 cg2d: Sum(rhs),rhsMax =   6.87886840426378E+04  1.02661416731370E-01
 cg2d: Sum(rhs),rhsMax =   6.96398839679705E+04  1.02659094377753E-01
 cg2d: Sum(rhs),rhsMax =   7.04789251554074E+04  1.02649780851224E-01
 cg2d: Sum(rhs),rhsMax =   7.13056969804721E+04  1.02633395616228E-01
 cg2d: Sum(rhs),rhsMax =   7.21200904186051E+04  1.02609841833478E-01
 cg2d: Sum(rhs),rhsMax =   7.29219980599181E+04  1.02579007068204E-01
 cg2d: Sum(rhs),rhsMax =   7.37113141237882E+04  1.02540764262619E-01
 cg2d: Sum(rhs),rhsMax =   7.44879344731683E+04  1.02494972893397E-01
 cg2d: Sum(rhs),rhsMax =   7.52517566287424E+04  1.02441480192908E-01
 cg2d: Sum(rhs),rhsMax =   7.60026797827843E+04  1.02380122319600E-01
(PID.TID 0000.0001)      cg2d_init_res =   9.86021109952915E-01
(PID.TID 0000.0001)      cg2d_iters(min,last) =      -1     153
(PID.TID 0000.0001)      cg2d_last_res =   1.98424344637801E-11
(PID.TID 0000.0001) // =======================================================
(PID.TID 0000.0001) // Begin MONITOR dynamic field statistics
(PID.TID 0000.0001) // =======================================================
(PID.TID 0000.0001) %MON time_tsnumber                =              15812595
(PID.TID 0000.0001) %MON time_secondsf                =   1.2650076000000E+09
(PID.TID 0000.0001) %MON dynstat_eta_max              =   6.1747101410484E-01
(PID.TID 0000.0001) %MON dynstat_eta_min              =  -1.8288260240129E+00
(PID.TID 0000.0001) %MON dynstat_eta_mean             =  -2.8723064592395E-01
(PID.TID 0000.0001) %MON dynstat_eta_sd               =   2.8824583982946E-01
(PID.TID 0000.0001) %MON dynstat_eta_del2             =   1.1138975993506E-06
(PID.TID 0000.0001) %MON dynstat_uvel_max             =   2.9289480507590E+00
(PID.TID 0000.0001) %MON dynstat_uvel_min             =  -2.7578419220876E+00
(PID.TID 0000.0001) %MON dynstat_uvel_mean            =  -1.2242476588899E-02
(PID.TID 0000.0001) %MON dynstat_uvel_sd              =   9.4101675592740E-02
(PID.TID 0000.0001) %MON dynstat_uvel_del2            =   1.8666207879752E-06
(PID.TID 0000.0001) %MON dynstat_vvel_max             =   2.8295164412659E+00
(PID.TID 0000.0001) %MON dynstat_vvel_min             =  -2.6499148096617E+00
(PID.TID 0000.0001) %MON dynstat_vvel_mean            =  -1.2780059335784E-02
(PID.TID 0000.0001) %MON dynstat_vvel_sd              =   8.6687885659631E-02
(PID.TID 0000.0001) %MON dynstat_vvel_del2            =   1.7449385650874E-06
(PID.TID 0000.0001) %MON dynstat_wvel_max             =   4.8670310549202E-02
(PID.TID 0000.0001) %MON dynstat_wvel_min             =  -3.3934412569885E-02
(PID.TID 0000.0001) %MON dynstat_wvel_mean            =  -2.3129710180883E-05
(PID.TID 0000.0001) %MON dynstat_wvel_sd              =   1.6646107858989E-03
(PID.TID 0000.0001) %MON dynstat_wvel_del2            =   9.7624045134745E-08
(PID.TID 0000.0001) %MON dynstat_theta_max            =   2.4969422279066E+01
(PID.TID 0000.0001) %MON dynstat_theta_min            =  -2.7357173650413E+00
(PID.TID 0000.0001) %MON dynstat_theta_mean           =   5.5832263108432E+00
(PID.TID 0000.0001) %MON dynstat_theta_sd             =   4.6759104237154E+00
(PID.TID 0000.0001) %MON dynstat_theta_del2           =   7.4611643322954E-06
(PID.TID 0000.0001) %MON dynstat_salt_max             =   8.9614881564957E+01
(PID.TID 0000.0001) %MON dynstat_salt_min             =   2.0157543931056E+00
(PID.TID 0000.0001) %MON dynstat_salt_mean            =   3.5191476998164E+01
(PID.TID 0000.0001) %MON dynstat_salt_sd              =   4.5294401305159E-01
(PID.TID 0000.0001) %MON dynstat_salt_del2            =   1.4852195508754E-06
(PID.TID 0000.0001) %MON dynstat_sst_max              =   2.4958633700054E+01
(PID.TID 0000.0001) %MON dynstat_sst_min              =  -2.7357173650413E+00
(PID.TID 0000.0001) %MON dynstat_sst_mean             =   1.7662787806340E+01
(PID.TID 0000.0001) %MON dynstat_sst_sd               =   3.3921328167116E+00
(PID.TID 0000.0001) %MON dynstat_sst_del2             =   8.8890249276155E-05
(PID.TID 0000.0001) %MON dynstat_sss_max              =   8.9614881564957E+01
(PID.TID 0000.0001) %MON dynstat_sss_min              =   2.0157543931056E+00
(PID.TID 0000.0001) %MON dynstat_sss_mean             =   3.6424864169505E+01
(PID.TID 0000.0001) %MON dynstat_sss_sd               =   4.5330041428031E-01
(PID.TID 0000.0001) %MON dynstat_sss_del2             =   1.7010814294494E-05
(PID.TID 0000.0001) %MON forcing_qnet_max             =   1.7099083735883E+03
(PID.TID 0000.0001) %MON forcing_qnet_min             =  -6.2656262848829E+02
(PID.TID 0000.0001) %MON forcing_qnet_mean            =   3.3022385986895E+02
(PID.TID 0000.0001) %MON forcing_qnet_sd              =   2.7891112311643E+02
(PID.TID 0000.0001) %MON forcing_qnet_del2            =   6.0478877309129E-03
(PID.TID 0000.0001) %MON forcing_qsw_max              =   0.0000000000000E+00
(PID.TID 0000.0001) %MON forcing_qsw_min              =  -2.9815101808433E+00
(PID.TID 0000.0001) %MON forcing_qsw_mean             =  -3.2661221141060E-02
(PID.TID 0000.0001) %MON forcing_qsw_sd               =   1.7393411996588E-01
(PID.TID 0000.0001) %MON forcing_qsw_del2             =   3.3237367236841E-07
(PID.TID 0000.0001) %MON forcing_empmr_max            =   3.6979625212636E-04
(PID.TID 0000.0001) %MON forcing_empmr_min            =  -2.5926422665683E-03
(PID.TID 0000.0001) %MON forcing_empmr_mean           =   1.3206891598723E-05
(PID.TID 0000.0001) %MON forcing_empmr_sd             =   2.3489674861110E-04
(PID.TID 0000.0001) %MON forcing_empmr_del2           =   1.6730331802420E-09
(PID.TID 0000.0001) %MON forcing_fu_max               =   9.3609977643008E-01
(PID.TID 0000.0001) %MON forcing_fu_min               =  -2.1561161262901E-01
(PID.TID 0000.0001) %MON forcing_fu_mean              =   1.7630692644171E-01
(PID.TID 0000.0001) %MON forcing_fu_sd                =   1.7861116941075E-01
(PID.TID 0000.0001) %MON forcing_fu_del2              =   1.0410045542464E-06
(PID.TID 0000.0001) %MON forcing_fv_max               =   1.0950405613932E+00
(PID.TID 0000.0001) %MON forcing_fv_min               =  -8.6999726865645E-01
(PID.TID 0000.0001) %MON forcing_fv_mean              =  -4.8501730989241E-02
(PID.TID 0000.0001) %MON forcing_fv_sd                =   2.3608608503218E-01
(PID.TID 0000.0001) %MON forcing_fv_del2              =   9.8920656766467E-07
(PID.TID 0000.0001) %MON trAdv_CFL_u_max              =   9.9245943915636E-02
(PID.TID 0000.0001) %MON trAdv_CFL_v_max              =   9.7718044400915E-02
(PID.TID 0000.0001) %MON trAdv_CFL_w_max              =   3.0276075189933E-01
(PID.TID 0000.0001) %MON advcfl_uvel_max              =   9.9245943368898E-02
(PID.TID 0000.0001) %MON advcfl_vvel_max              =   9.7729718142240E-02
(PID.TID 0000.0001) %MON advcfl_wvel_max              =   2.9654888990674E-01
(PID.TID 0000.0001) %MON advcfl_W_hf_max              =   3.0276075189933E-01
(PID.TID 0000.0001) %MON pe_b_mean                    =  -6.7639218159011E-03
(PID.TID 0000.0001) %MON ke_max                       =   4.4733037051073E+00
(PID.TID 0000.0001) %MON ke_mean                      =   8.2965187181959E-03
(PID.TID 0000.0001) %MON ke_vol                       =   4.6123795034297E+16
(PID.TID 0000.0001) %MON vort_r_min                   =  -1.7236650731332E-03
(PID.TID 0000.0001) %MON vort_r_max                   =   1.6143349378402E-03
(PID.TID 0000.0001) %MON vort_a_mean                  =   8.2145893387761E-05
(PID.TID 0000.0001) %MON vort_a_sd                    =   1.4045618963046E-05
(PID.TID 0000.0001) %MON vort_p_mean                  =   8.4437923877998E-05
(PID.TID 0000.0001) %MON vort_p_sd                    =   3.4120859200442E-05
(PID.TID 0000.0001) %MON surfExpan_theta_mean         =  -5.4988949778752E-04
(PID.TID 0000.0001) %MON surfExpan_salt_mean          =  -1.2882029720233E-03
(PID.TID 0000.0001) // =======================================================
(PID.TID 0000.0001) // End MONITOR dynamic field statistics
(PID.TID 0000.0001) // =======================================================
(PID.TID 0000.0001) // =======================================================
(PID.TID 0000.0001) // Begin OBCS MONITOR field statistics
(PID.TID 0000.0001) // =======================================================
(PID.TID 0000.0001) %MON obc_E_uVel_max               =   6.2645627928402E-01
(PID.TID 0000.0001) %MON obc_E_uVel_min               =   1.9863592623053E-01
(PID.TID 0000.0001) %MON obc_E_uVel_mean              =   4.1332068130973E-01
(PID.TID 0000.0001) %MON obc_E_uVel_sd                =   9.4133885664894E-02
(PID.TID 0000.0001) %MON obc_E_uVel_Int               =   2.8206867064370E+06
(PID.TID 0000.0001) %MON obc_N_vVel_max               =   1.8874899820184E-01
(PID.TID 0000.0001) %MON obc_N_vVel_min               =  -1.1241265987442E+00
(PID.TID 0000.0001) %MON obc_N_vVel_mean              =  -5.7962531978516E-03
(PID.TID 0000.0001) %MON obc_N_vVel_sd                =   3.9723876303122E-02
(PID.TID 0000.0001) %MON obc_N_vVel_Int               =  -8.2710473748712E+07
(PID.TID 0000.0001) %MON obc_S_vVel_max               =   1.3408256427685E+00
(PID.TID 0000.0001) %MON obc_S_vVel_min               =  -1.7882736961620E-01
(PID.TID 0000.0001) %MON obc_S_vVel_mean              =  -1.5892218857234E-02
(PID.TID 0000.0001) %MON obc_S_vVel_sd                =   3.2370878311392E-02
(PID.TID 0000.0001) %MON obc_S_vVel_Int               =  -4.8324803282415E+08
(PID.TID 0000.0001) %MON obc_E_theta_max              =   1.5981519699097E+01
(PID.TID 0000.0001) %MON obc_E_theta_min              =   1.3104037284851E+01
(PID.TID 0000.0001) %MON obc_E_theta_mean             =   1.4974089986960E+01
(PID.TID 0000.0001) %MON obc_E_theta_sd               =   6.0075505804650E-01
(PID.TID 0000.0001) %MON obc_N_theta_max              =   1.5721092224121E+01
(PID.TID 0000.0001) %MON obc_N_theta_min              =   9.7373789548874E-01
(PID.TID 0000.0001) %MON obc_N_theta_mean             =   5.3443110148828E+00
(PID.TID 0000.0001) %MON obc_N_theta_sd               =   3.5834807335781E+00
(PID.TID 0000.0001) %MON obc_S_theta_max              =   2.4979528427124E+01
(PID.TID 0000.0001) %MON obc_S_theta_min              =   1.5124862194061E+00
(PID.TID 0000.0001) %MON obc_S_theta_mean             =   5.4273114502690E+00
(PID.TID 0000.0001) %MON obc_S_theta_sd               =   5.1694562801555E+00
(PID.TID 0000.0001) %MON obc_E_salt_max               =   3.8703720092773E+01
(PID.TID 0000.0001) %MON obc_E_salt_min               =   3.6289142608643E+01
(PID.TID 0000.0001) %MON obc_E_salt_mean              =   3.6643778075730E+01
(PID.TID 0000.0001) %MON obc_E_salt_sd                =   5.5037722650442E-01
(PID.TID 0000.0001) %MON obc_N_salt_max               =   3.6066974639893E+01
(PID.TID 0000.0001) %MON obc_N_salt_min               =   3.2878395080566E+01
(PID.TID 0000.0001) %MON obc_N_salt_mean              =   3.5117165924185E+01
(PID.TID 0000.0001) %MON obc_N_salt_sd                =   3.1541903364831E-01
(PID.TID 0000.0001) %MON obc_S_salt_max               =   3.7600940704346E+01
(PID.TID 0000.0001) %MON obc_S_salt_min               =   3.4853485107422E+01
(PID.TID 0000.0001) %MON obc_S_salt_mean              =   3.5185630803177E+01
(PID.TID 0000.0001) %MON obc_S_salt_sd                =   4.9502018312198E-01
(PID.TID 0000.0001) // =======================================================
(PID.TID 0000.0001) // End OBCS MONITOR field statistics
(PID.TID 0000.0001) // =======================================================
(PID.TID 0000.0001) // =======================================================
(PID.TID 0000.0001) // Begin MONITOR ptracer field statistics
(PID.TID 0000.0001) // =======================================================
(PID.TID 0000.0001) %MON trcstat_ptracer01_max        =   0.0000000000000E+00
(PID.TID 0000.0001) %MON trcstat_ptracer01_min        =   0.0000000000000E+00
(PID.TID 0000.0001) %MON trcstat_ptracer01_mean       =   0.0000000000000E+00
(PID.TID 0000.0001) %MON trcstat_ptracer01_sd         =   0.0000000000000E+00
(PID.TID 0000.0001) %MON trcstat_ptracer01_del2       =   0.0000000000000E+00
(PID.TID 0000.0001) %MON trcstat_ptracer02_max        =   0.0000000000000E+00
(PID.TID 0000.0001) %MON trcstat_ptracer02_min        =   0.0000000000000E+00
(PID.TID 0000.0001) %MON trcstat_ptracer02_mean       =   0.0000000000000E+00
(PID.TID 0000.0001) %MON trcstat_ptracer02_sd         =   0.0000000000000E+00
(PID.TID 0000.0001) %MON trcstat_ptracer02_del2       =   0.0000000000000E+00
(PID.TID 0000.0001) // =======================================================
(PID.TID 0000.0001) // End MONITOR ptracer field statistics
(PID.TID 0000.0001) // =======================================================
(PID.TID 0000.0001) // =======================================================
(PID.TID 0000.0001) // Begin MONITOR EXF statistics
(PID.TID 0000.0001) // =======================================================
(PID.TID 0000.0001) %MON exf_tsnumber                 =              15812595
(PID.TID 0000.0001) %MON exf_time_sec                 =   1.2650076000000E+09
(PID.TID 0000.0001) %MON exf_ustress_max              =   9.3644686527709E-01
(PID.TID 0000.0001) %MON exf_ustress_min              =  -2.1576494022091E-01
(PID.TID 0000.0001) %MON exf_ustress_mean             =   1.7633279511512E-01
(PID.TID 0000.0001) %MON exf_ustress_sd               =   1.7888272302165E-01
(PID.TID 0000.0001) %MON exf_ustress_del2             =   1.1353410123457E-06
(PID.TID 0000.0001) %MON exf_vstress_max              =   1.1032320025478E+00
(PID.TID 0000.0001) %MON exf_vstress_min              =  -8.7003593296509E-01
(PID.TID 0000.0001) %MON exf_vstress_mean             =  -4.8574690193534E-02
(PID.TID 0000.0001) %MON exf_vstress_sd               =   2.3637729272480E-01
(PID.TID 0000.0001) %MON exf_vstress_del2             =   1.0931836607589E-06
(PID.TID 0000.0001) %MON exf_hflux_max                =   1.6772671907538E+03
(PID.TID 0000.0001) %MON exf_hflux_min                =  -5.3504263598097E+02
(PID.TID 0000.0001) %MON exf_hflux_mean               =   3.2852691188310E+02
(PID.TID 0000.0001) %MON exf_hflux_sd                 =   2.7082448586618E+02
(PID.TID 0000.0001) %MON exf_hflux_del2               =   1.3117829820832E-01
(PID.TID 0000.0001) %MON exf_sflux_max                =   3.6975259240337E-07
(PID.TID 0000.0001) %MON exf_sflux_min                =  -2.5823931267325E-06
(PID.TID 0000.0001) %MON exf_sflux_mean               =   1.3301022985597E-08
(PID.TID 0000.0001) %MON exf_sflux_sd                 =   2.3475523397559E-07
(PID.TID 0000.0001) %MON exf_sflux_del2               =   7.2822405455979E-11
(PID.TID 0000.0001) %MON exf_uwind_max                =   2.0029535138197E+01
(PID.TID 0000.0001) %MON exf_uwind_min                =  -8.9044341220971E+00
(PID.TID 0000.0001) %MON exf_uwind_mean               =   6.9315980270442E+00
(PID.TID 0000.0001) %MON exf_uwind_sd                 =   5.2501970293386E+00
(PID.TID 0000.0001) %MON exf_uwind_del2               =   2.6806819366948E-03
(PID.TID 0000.0001) %MON exf_vwind_max                =   2.1491218350084E+01
(PID.TID 0000.0001) %MON exf_vwind_min                =  -1.7227149534263E+01
(PID.TID 0000.0001) %MON exf_vwind_mean               =  -1.6139481309130E+00
(PID.TID 0000.0001) %MON exf_vwind_sd                 =   8.6588791505141E+00
(PID.TID 0000.0001) %MON exf_vwind_del2               =   2.7140912024613E-03
(PID.TID 0000.0001) %MON exf_wspeed_max               =   2.2485614755382E+01
(PID.TID 0000.0001) %MON exf_wspeed_min               =   9.2614334357962E-03
(PID.TID 0000.0001) %MON exf_wspeed_mean              =   1.1550735569217E+01
(PID.TID 0000.0001) %MON exf_wspeed_sd                =   4.4467004146809E+00
(PID.TID 0000.0001) %MON exf_wspeed_del2              =   3.8145361421221E-03
(PID.TID 0000.0001) %MON exf_atemp_max                =   2.9644404825056E+02
(PID.TID 0000.0001) %MON exf_atemp_min                =   2.6286223215316E+02
(PID.TID 0000.0001) %MON exf_atemp_mean               =   2.8848239733190E+02
(PID.TID 0000.0001) %MON exf_atemp_sd                 =   4.8760203361325E+00
(PID.TID 0000.0001) %MON exf_atemp_del2               =   4.8767674165438E-03
(PID.TID 0000.0001) %MON exf_aqh_max                  =   1.5036134762594E-02
(PID.TID 0000.0001) %MON exf_aqh_min                  =   1.1326620719443E-03
(PID.TID 0000.0001) %MON exf_aqh_mean                 =   8.3235986290893E-03
(PID.TID 0000.0001) %MON exf_aqh_sd                   =   2.7808411475450E-03
(PID.TID 0000.0001) %MON exf_aqh_del2                 =   2.6684107903071E-06
(PID.TID 0000.0001) %MON exf_lwflux_max               =   1.7326880123224E+02
(PID.TID 0000.0001) %MON exf_lwflux_min               =  -3.9446394571274E+01
(PID.TID 0000.0001) %MON exf_lwflux_mean              =   6.6196569680122E+01
(PID.TID 0000.0001) %MON exf_lwflux_sd                =   3.0112008574977E+01
(PID.TID 0000.0001) %MON exf_lwflux_del2              =   2.2329923460625E-02
(PID.TID 0000.0001) %MON exf_evap_max                 =   4.1671699090594E-07
(PID.TID 0000.0001) %MON exf_evap_min                 =  -1.3522839446621E-07
(PID.TID 0000.0001) %MON exf_evap_mean                =   8.5136946509938E-08
(PID.TID 0000.0001) %MON exf_evap_sd                  =   6.9655321381591E-08
(PID.TID 0000.0001) %MON exf_evap_del2                =   3.3758278368295E-11
(PID.TID 0000.0001) %MON exf_precip_max               =   2.5633716557258E-06
(PID.TID 0000.0001) %MON exf_precip_min               =   0.0000000000000E+00
(PID.TID 0000.0001) %MON exf_precip_mean              =   7.0228878889871E-08
(PID.TID 0000.0001) %MON exf_precip_sd                =   2.1601290746859E-07
(PID.TID 0000.0001) %MON exf_precip_del2              =   7.0520128208797E-11
(PID.TID 0000.0001) %MON exf_swflux_max               =   0.0000000000000E+00
(PID.TID 0000.0001) %MON exf_swflux_min               =  -3.1201858747771E+00
(PID.TID 0000.0001) %MON exf_swflux_mean              =  -3.4180358525900E-02
(PID.TID 0000.0001) %MON exf_swflux_sd                =   1.8202413238325E-01
(PID.TID 0000.0001) %MON exf_swflux_del2              =   5.5291459268430E-05
(PID.TID 0000.0001) %MON exf_swdown_max               =   3.4156567983612E+00
(PID.TID 0000.0001) %MON exf_swdown_min               =   0.0000000000000E+00
(PID.TID 0000.0001) %MON exf_swdown_mean              =   3.7560401249377E-02
(PID.TID 0000.0001) %MON exf_swdown_sd                =   1.9972922052910E-01
(PID.TID 0000.0001) %MON exf_swdown_del2              =   6.0683075887320E-05
(PID.TID 0000.0001) %MON exf_lwdown_max               =   4.1479530617170E+02
(PID.TID 0000.0001) %MON exf_lwdown_min               =   1.7982436951342E+02
(PID.TID 0000.0001) %MON exf_lwdown_mean              =   3.3762733083152E+02
(PID.TID 0000.0001) %MON exf_lwdown_sd                =   3.6954620536868E+01
(PID.TID 0000.0001) %MON exf_lwdown_del2              =   1.0350203225547E-01
(PID.TID 0000.0001) %MON exf_apressure_max            =   1.0256908987240E+05
(PID.TID 0000.0001) %MON exf_apressure_min            =   9.7986133683330E+04
(PID.TID 0000.0001) %MON exf_apressure_mean           =   1.0117322490931E+05
(PID.TID 0000.0001) %MON exf_apressure_sd             =   1.1398373912695E+03
(PID.TID 0000.0001) %MON exf_apressure_del2           =   3.0914004950564E+01
(PID.TID 0000.0001) %MON exf_runoff_max               =   4.6633690723924E-08
(PID.TID 0000.0001) %MON exf_runoff_min               =   0.0000000000000E+00
(PID.TID 0000.0001) %MON exf_runoff_mean              =   1.6070446344693E-09
(PID.TID 0000.0001) %MON exf_runoff_sd                =   5.4409705936606E-09
(PID.TID 0000.0001) %MON exf_runoff_del2              =   1.7602788524736E-12
(PID.TID 0000.0001) // =======================================================
(PID.TID 0000.0001) // End MONITOR EXF statistics
(PID.TID 0000.0001) // =======================================================
 cg2d: Sum(rhs),rhsMax =   7.67406048128630E+04  1.02310725413994E-01
 cg2d: Sum(rhs),rhsMax =   7.74654342952416E+04  1.02233108461595E-01
 cg2d: Sum(rhs),rhsMax =   7.81770725181276E+04  1.02147082652196E-01
 cg2d: Sum(rhs),rhsMax =   7.88754254946003E+04  1.02052453030931E-01
 cg2d: Sum(rhs),rhsMax =   7.95604009753992E+04  1.01949020018830E-01
 cg2d: Sum(rhs),rhsMax =   8.02319084613764E+04  1.01836580914607E-01
 cg2d: Sum(rhs),rhsMax =   8.08898592158110E+04  1.01714931354996E-01
 cg2d: Sum(rhs),rhsMax =   8.15341662763775E+04  1.01583866542286E-01
 cg2d: Sum(rhs),rhsMax =   8.21647444669822E+04  1.01450561354407E-01
 cg2d: Sum(rhs),rhsMax =   8.27815104092463E+04  1.01319936894408E-01
 cg2d: Sum(rhs),rhsMax =   8.33843825338457E+04  1.01180022411560E-01
 cg2d: Sum(rhs),rhsMax =   8.39732810915059E+04  1.01030519246168E-01
 cg2d: Sum(rhs),rhsMax =   8.45481281638474E+04  1.00871127950368E-01
 cg2d: Sum(rhs),rhsMax =   8.51088476738726E+04  1.00701550783966E-01
 cg2d: Sum(rhs),rhsMax =   8.56553653963184E+04  1.00521494268413E-01
 cg2d: Sum(rhs),rhsMax =   8.61876089676295E+04  1.00330671887157E-01
 cg2d: Sum(rhs),rhsMax =   8.67055078958068E+04  1.00128806024026E-01
 cg2d: Sum(rhs),rhsMax =   8.72089935698693E+04  9.99156301053363E-02
 cg2d: Sum(rhs),rhsMax =   8.76979992691840E+04  9.96908908775391E-02
 cg2d: Sum(rhs),rhsMax =   8.81724601724155E+04  9.94543506247320E-02
 cg2d: Sum(rhs),rhsMax =   8.86323133663331E+04  9.92057892926621E-02
 cg2d: Sum(rhs),rhsMax =   8.90774978542415E+04  9.89450064805095E-02
 cg2d: Sum(rhs),rhsMax =   8.95079545642585E+04  9.86718232410889E-02
 cg2d: Sum(rhs),rhsMax =   8.99236263572239E+04  9.83860835808753E-02
 cg2d: Sum(rhs),rhsMax =   9.03244580344435E+04  9.80876555579266E-02
 cg2d: Sum(rhs),rhsMax =   9.07103963450690E+04  9.77764325105599E-02
 cg2d: Sum(rhs),rhsMax =   9.10813899933104E+04  9.74523340972170E-02
 cg2d: Sum(rhs),rhsMax =   9.14373896452758E+04  9.71153049249426E-02
 cg2d: Sum(rhs),rhsMax =   9.17783479356503E+04  9.67653147813737E-02
 cg2d: Sum(rhs),rhsMax =   9.21042194739935E+04  9.64023549698449E-02
 cg2d: Sum(rhs),rhsMax =   9.24149608508774E+04  9.60264401180230E-02
 cg2d: Sum(rhs),rhsMax =   9.27105306436430E+04  9.56376091572046E-02
 cg2d: Sum(rhs),rhsMax =   9.29908894219965E+04  9.52359264966048E-02
 cg2d: Sum(rhs),rhsMax =   9.32559997532133E+04  9.48214827193847E-02
 cg2d: Sum(rhs),rhsMax =   9.35058262071897E+04  9.43943955902945E-02
 cg2d: Sum(rhs),rhsMax =   9.37403353611023E+04  9.39548101494848E-02
 cg2d: Sum(rhs),rhsMax =   9.39594958039010E+04  9.35028954513644E-02
 cg2d: Sum(rhs),rhsMax =   9.41632781404263E+04  9.30388443263477E-02
 cg2d: Sum(rhs),rhsMax =   9.43516549953473E+04  9.25628730933585E-02
 cg2d: Sum(rhs),rhsMax =   9.45246010167232E+04  9.20752229215880E-02
 cg2d: Sum(rhs),rhsMax =   9.46820928793911E+04  9.15761602877112E-02
 cg2d: Sum(rhs),rhsMax =   9.48241092879710E+04  9.10659751125568E-02
 cg2d: Sum(rhs),rhsMax =   9.49506309796944E+04  9.05449770131075E-02
 cg2d: Sum(rhs),rhsMax =   9.50616407268600E+04  9.00134912657634E-02
 cg2d: Sum(rhs),rhsMax =   9.51571233391037E+04  8.94718555592235E-02
(PID.TID 0000.0001)      cg2d_init_res =   7.52980607928213E-01
(PID.TID 0000.0001)      cg2d_iters(min,last) =      -1     151
(PID.TID 0000.0001)      cg2d_last_res =   2.04519020400678E-11
(PID.TID 0000.0001) // =======================================================
(PID.TID 0000.0001) // Begin MONITOR dynamic field statistics
(PID.TID 0000.0001) // =======================================================
(PID.TID 0000.0001) %MON time_tsnumber                =              15812640
(PID.TID 0000.0001) %MON time_secondsf                =   1.2650112000000E+09
(PID.TID 0000.0001) %MON dynstat_eta_max              =   7.4710771333333E-01
(PID.TID 0000.0001) %MON dynstat_eta_min              =  -1.9527469662402E+00
(PID.TID 0000.0001) %MON dynstat_eta_mean             =  -3.5961945130186E-01
(PID.TID 0000.0001) %MON dynstat_eta_sd               =   3.5273619816558E-01
(PID.TID 0000.0001) %MON dynstat_eta_del2             =   1.0599981497876E-06
(PID.TID 0000.0001) %MON dynstat_uvel_max             =   2.9535037426023E+00
(PID.TID 0000.0001) %MON dynstat_uvel_min             =  -2.7588316284739E+00
(PID.TID 0000.0001) %MON dynstat_uvel_mean            =  -1.5295061129692E-02
(PID.TID 0000.0001) %MON dynstat_uvel_sd              =   9.3911350222976E-02
(PID.TID 0000.0001) %MON dynstat_uvel_del2            =   1.8627441381088E-06
(PID.TID 0000.0001) %MON dynstat_vvel_max             =   2.8049923282989E+00
(PID.TID 0000.0001) %MON dynstat_vvel_min             =  -2.6525734179804E+00
(PID.TID 0000.0001) %MON dynstat_vvel_mean            =  -9.6380552104581E-03
(PID.TID 0000.0001) %MON dynstat_vvel_sd              =   8.6668520007340E-02
(PID.TID 0000.0001) %MON dynstat_vvel_del2            =   1.7410112589057E-06
(PID.TID 0000.0001) %MON dynstat_wvel_max             =   5.0601431075701E-02
(PID.TID 0000.0001) %MON dynstat_wvel_min             =  -3.2539242547488E-02
(PID.TID 0000.0001) %MON dynstat_wvel_mean            =  -4.7393526147850E-06
(PID.TID 0000.0001) %MON dynstat_wvel_sd              =   1.6610419408041E-03
(PID.TID 0000.0001) %MON dynstat_wvel_del2            =   9.7769952674002E-08
(PID.TID 0000.0001) %MON dynstat_theta_max            =   2.4969731087589E+01
(PID.TID 0000.0001) %MON dynstat_theta_min            =  -2.7456168478860E+00
(PID.TID 0000.0001) %MON dynstat_theta_mean           =   5.5833159346469E+00
(PID.TID 0000.0001) %MON dynstat_theta_sd             =   4.6758078471028E+00
(PID.TID 0000.0001) %MON dynstat_theta_del2           =   7.4850839035227E-06
(PID.TID 0000.0001) %MON dynstat_salt_max             =   8.9620038478534E+01
(PID.TID 0000.0001) %MON dynstat_salt_min             =   2.0157684279205E+00
(PID.TID 0000.0001) %MON dynstat_salt_mean            =   3.5191494838614E+01
(PID.TID 0000.0001) %MON dynstat_salt_sd              =   4.5295943641274E-01
(PID.TID 0000.0001) %MON dynstat_salt_del2            =   1.4912438339749E-06
(PID.TID 0000.0001) %MON dynstat_sst_max              =   2.4959313946174E+01
(PID.TID 0000.0001) %MON dynstat_sst_min              =  -2.7456168478860E+00
(PID.TID 0000.0001) %MON dynstat_sst_mean             =   1.7658713361338E+01
(PID.TID 0000.0001) %MON dynstat_sst_sd               =   3.3925111579732E+00
(PID.TID 0000.0001) %MON dynstat_sst_del2             =   8.9138773426309E-05
(PID.TID 0000.0001) %MON dynstat_sss_max              =   8.9620038478534E+01
(PID.TID 0000.0001) %MON dynstat_sss_min              =   2.0157684279205E+00
(PID.TID 0000.0001) %MON dynstat_sss_mean             =   3.6424664888842E+01
(PID.TID 0000.0001) %MON dynstat_sss_sd               =   4.5378373381910E-01
(PID.TID 0000.0001) %MON dynstat_sss_del2             =   1.7044460351548E-05
(PID.TID 0000.0001) %MON forcing_qnet_max             =   1.7338732529499E+03
(PID.TID 0000.0001) %MON forcing_qnet_min             =  -3.7787200935124E+02
(PID.TID 0000.0001) %MON forcing_qnet_mean            =   3.2979455580551E+02
(PID.TID 0000.0001) %MON forcing_qnet_sd              =   2.7681807268483E+02
(PID.TID 0000.0001) %MON forcing_qnet_del2            =   6.0807101741683E-03
(PID.TID 0000.0001) %MON forcing_qsw_max              =   0.0000000000000E+00
(PID.TID 0000.0001) %MON forcing_qsw_min              =  -5.1989044970480E+01
(PID.TID 0000.0001) %MON forcing_qsw_mean             =  -2.9077828598310E+00
(PID.TID 0000.0001) %MON forcing_qsw_sd               =   6.8847941955733E+00
(PID.TID 0000.0001) %MON forcing_qsw_del2             =   9.4620838996381E-06
(PID.TID 0000.0001) %MON forcing_empmr_max            =   3.8384061959534E-04
(PID.TID 0000.0001) %MON forcing_empmr_min            =  -2.5635108738840E-03
(PID.TID 0000.0001) %MON forcing_empmr_mean           =   1.6711192803155E-05
(PID.TID 0000.0001) %MON forcing_empmr_sd             =   2.2727031024013E-04
(PID.TID 0000.0001) %MON forcing_empmr_del2           =   1.6586441692569E-09
(PID.TID 0000.0001) %MON forcing_fu_max               =   8.7828965048050E-01
(PID.TID 0000.0001) %MON forcing_fu_min               =  -1.9111634848718E-01
(PID.TID 0000.0001) %MON forcing_fu_mean              =   1.7398943283933E-01
(PID.TID 0000.0001) %MON forcing_fu_sd                =   1.7670082427985E-01
(PID.TID 0000.0001) %MON forcing_fu_del2              =   1.0500642407976E-06
(PID.TID 0000.0001) %MON forcing_fv_max               =   9.7206684228835E-01
(PID.TID 0000.0001) %MON forcing_fv_min               =  -7.9942107646869E-01
(PID.TID 0000.0001) %MON forcing_fv_mean              =  -5.3136470688572E-02
(PID.TID 0000.0001) %MON forcing_fv_sd                =   2.3576939853959E-01
(PID.TID 0000.0001) %MON forcing_fv_del2              =   9.8746310091277E-07
(PID.TID 0000.0001) %MON trAdv_CFL_u_max              =   1.0007800128683E-01
(PID.TID 0000.0001) %MON trAdv_CFL_v_max              =   9.6871171353576E-02
(PID.TID 0000.0001) %MON trAdv_CFL_w_max              =   3.5165345021872E-01
(PID.TID 0000.0001) %MON advcfl_uvel_max              =   1.0007800073551E-01
(PID.TID 0000.0001) %MON advcfl_vvel_max              =   9.6882670705796E-02
(PID.TID 0000.0001) %MON advcfl_wvel_max              =   3.4491532595768E-01
(PID.TID 0000.0001) %MON advcfl_W_hf_max              =   3.5165345021872E-01
(PID.TID 0000.0001) %MON pe_b_mean                    =  -8.3787318594370E-03
(PID.TID 0000.0001) %MON ke_max                       =   4.4394429015929E+00
(PID.TID 0000.0001) %MON ke_mean                      =   8.2838766752339E-03
(PID.TID 0000.0001) %MON ke_vol                       =   4.6123795034297E+16
(PID.TID 0000.0001) %MON vort_r_min                   =  -1.3123296345030E-03
(PID.TID 0000.0001) %MON vort_r_max                   =   1.0882445140515E-03
(PID.TID 0000.0001) %MON vort_a_mean                  =   8.2145895098851E-05
(PID.TID 0000.0001) %MON vort_a_sd                    =   1.4036286900750E-05
(PID.TID 0000.0001) %MON vort_p_mean                  =   8.4437925636832E-05
(PID.TID 0000.0001) %MON vort_p_sd                    =   3.4100861736669E-05
(PID.TID 0000.0001) %MON surfExpan_theta_mean         =  -1.2424301533797E-05
(PID.TID 0000.0001) %MON surfExpan_salt_mean          =  -1.6018464392463E-04
(PID.TID 0000.0001) // =======================================================
(PID.TID 0000.0001) // End MONITOR dynamic field statistics
(PID.TID 0000.0001) // =======================================================
(PID.TID 0000.0001) // =======================================================
(PID.TID 0000.0001) // Begin OBCS MONITOR field statistics
(PID.TID 0000.0001) // =======================================================
(PID.TID 0000.0001) %MON obc_E_uVel_max               =   2.8848262948488E-01
(PID.TID 0000.0001) %MON obc_E_uVel_min               =  -8.5647604724131E-02
(PID.TID 0000.0001) %MON obc_E_uVel_mean              =   1.3085648123819E-01
(PID.TID 0000.0001) %MON obc_E_uVel_sd                =   8.2256942074554E-02
(PID.TID 0000.0001) %MON obc_E_uVel_Int               =   8.9302363460274E+05
(PID.TID 0000.0001) %MON obc_N_vVel_max               =   3.0368702577372E-01
(PID.TID 0000.0001) %MON obc_N_vVel_min               =  -1.0601985480789E+00
(PID.TID 0000.0001) %MON obc_N_vVel_mean              =  -1.1547755112693E-02
(PID.TID 0000.0001) %MON obc_N_vVel_sd                =   4.0677484867503E-02
(PID.TID 0000.0001) %MON obc_N_vVel_Int               =  -1.6478236258881E+08
(PID.TID 0000.0001) %MON obc_S_vVel_max               =   1.3485727583322E+00
(PID.TID 0000.0001) %MON obc_S_vVel_min               =  -1.7184319699219E-01
(PID.TID 0000.0001) %MON obc_S_vVel_mean              =  -7.0763926315913E-03
(PID.TID 0000.0001) %MON obc_S_vVel_sd                =   3.1390888499538E-02
(PID.TID 0000.0001) %MON obc_S_vVel_Int               =  -2.1517780804731E+08
(PID.TID 0000.0001) %MON obc_E_theta_max              =   1.5981519699097E+01
(PID.TID 0000.0001) %MON obc_E_theta_min              =   1.3104037284851E+01
(PID.TID 0000.0001) %MON obc_E_theta_mean             =   1.4974089986960E+01
(PID.TID 0000.0001) %MON obc_E_theta_sd               =   6.0075505804650E-01
(PID.TID 0000.0001) %MON obc_N_theta_max              =   1.5721092224121E+01
(PID.TID 0000.0001) %MON obc_N_theta_min              =   9.7373789548874E-01
(PID.TID 0000.0001) %MON obc_N_theta_mean             =   5.3443110148828E+00
(PID.TID 0000.0001) %MON obc_N_theta_sd               =   3.5834807335781E+00
(PID.TID 0000.0001) %MON obc_S_theta_max              =   2.4979528427124E+01
(PID.TID 0000.0001) %MON obc_S_theta_min              =   1.5124862194061E+00
(PID.TID 0000.0001) %MON obc_S_theta_mean             =   5.4273114502690E+00
(PID.TID 0000.0001) %MON obc_S_theta_sd               =   5.1694562801555E+00
(PID.TID 0000.0001) %MON obc_E_salt_max               =   3.8703720092773E+01
(PID.TID 0000.0001) %MON obc_E_salt_min               =   3.6289142608643E+01
(PID.TID 0000.0001) %MON obc_E_salt_mean              =   3.6643778075730E+01
(PID.TID 0000.0001) %MON obc_E_salt_sd                =   5.5037722650442E-01
(PID.TID 0000.0001) %MON obc_N_salt_max               =   3.6066974639893E+01
(PID.TID 0000.0001) %MON obc_N_salt_min               =   3.2878395080566E+01
(PID.TID 0000.0001) %MON obc_N_salt_mean              =   3.5117165924185E+01
(PID.TID 0000.0001) %MON obc_N_salt_sd                =   3.1541903364831E-01
(PID.TID 0000.0001) %MON obc_S_salt_max               =   3.7600940704346E+01
(PID.TID 0000.0001) %MON obc_S_salt_min               =   3.4853485107422E+01
(PID.TID 0000.0001) %MON obc_S_salt_mean              =   3.5185630803177E+01
(PID.TID 0000.0001) %MON obc_S_salt_sd                =   4.9502018312198E-01
(PID.TID 0000.0001) // =======================================================
(PID.TID 0000.0001) // End OBCS MONITOR field statistics
(PID.TID 0000.0001) // =======================================================
(PID.TID 0000.0001) // =======================================================
(PID.TID 0000.0001) // Begin MONITOR ptracer field statistics
(PID.TID 0000.0001) // =======================================================
(PID.TID 0000.0001) %MON trcstat_ptracer01_max        =   0.0000000000000E+00
(PID.TID 0000.0001) %MON trcstat_ptracer01_min        =   0.0000000000000E+00
(PID.TID 0000.0001) %MON trcstat_ptracer01_mean       =   0.0000000000000E+00
(PID.TID 0000.0001) %MON trcstat_ptracer01_sd         =   0.0000000000000E+00
(PID.TID 0000.0001) %MON trcstat_ptracer01_del2       =   0.0000000000000E+00
(PID.TID 0000.0001) %MON trcstat_ptracer02_max        =   0.0000000000000E+00
(PID.TID 0000.0001) %MON trcstat_ptracer02_min        =   0.0000000000000E+00
(PID.TID 0000.0001) %MON trcstat_ptracer02_mean       =   0.0000000000000E+00
(PID.TID 0000.0001) %MON trcstat_ptracer02_sd         =   0.0000000000000E+00
(PID.TID 0000.0001) %MON trcstat_ptracer02_del2       =   0.0000000000000E+00
(PID.TID 0000.0001) // =======================================================
(PID.TID 0000.0001) // End MONITOR ptracer field statistics
(PID.TID 0000.0001) // =======================================================
(PID.TID 0000.0001) // =======================================================
(PID.TID 0000.0001) // Begin MONITOR EXF statistics
(PID.TID 0000.0001) // =======================================================
(PID.TID 0000.0001) %MON exf_tsnumber                 =              15812640
(PID.TID 0000.0001) %MON exf_time_sec                 =   1.2650112000000E+09
(PID.TID 0000.0001) %MON exf_ustress_max              =   8.8413675198368E-01
(PID.TID 0000.0001) %MON exf_ustress_min              =  -1.9094375476551E-01
(PID.TID 0000.0001) %MON exf_ustress_mean             =   1.7397867651413E-01
(PID.TID 0000.0001) %MON exf_ustress_sd               =   1.7693411782761E-01
(PID.TID 0000.0001) %MON exf_ustress_del2             =   1.1418426622757E-06
(PID.TID 0000.0001) %MON exf_vstress_max              =   9.7921569477751E-01
(PID.TID 0000.0001) %MON exf_vstress_min              =  -7.9824582069788E-01
(PID.TID 0000.0001) %MON exf_vstress_mean             =  -5.3182593515575E-02
(PID.TID 0000.0001) %MON exf_vstress_sd               =   2.3606280198342E-01
(PID.TID 0000.0001) %MON exf_vstress_del2             =   1.0905580315612E-06
(PID.TID 0000.0001) %MON exf_hflux_max                =   1.7032846746955E+03
(PID.TID 0000.0001) %MON exf_hflux_min                =  -2.9198924253078E+02
(PID.TID 0000.0001) %MON exf_hflux_mean               =   3.2777612362345E+02
(PID.TID 0000.0001) %MON exf_hflux_sd                 =   2.6889234164293E+02
(PID.TID 0000.0001) %MON exf_hflux_del2               =   1.3069693973441E-01
(PID.TID 0000.0001) %MON exf_sflux_max                =   3.8493109919789E-07
(PID.TID 0000.0001) %MON exf_sflux_min                =  -2.5881834343474E-06
(PID.TID 0000.0001) %MON exf_sflux_mean               =   1.6811369099013E-08
(PID.TID 0000.0001) %MON exf_sflux_sd                 =   2.2699360330161E-07
(PID.TID 0000.0001) %MON exf_sflux_del2               =   7.0523503922861E-11
(PID.TID 0000.0001) %MON exf_uwind_max                =   1.9451239904219E+01
(PID.TID 0000.0001) %MON exf_uwind_min                =  -8.4484658678088E+00
(PID.TID 0000.0001) %MON exf_uwind_mean               =   6.8439418383956E+00
(PID.TID 0000.0001) %MON exf_uwind_sd                 =   5.2386305908461E+00
(PID.TID 0000.0001) %MON exf_uwind_del2               =   2.6579098765733E-03
(PID.TID 0000.0001) %MON exf_vwind_max                =   2.0636164295624E+01
(PID.TID 0000.0001) %MON exf_vwind_min                =  -1.7359278831440E+01
(PID.TID 0000.0001) %MON exf_vwind_mean               =  -1.7846773431618E+00
(PID.TID 0000.0001) %MON exf_vwind_sd                 =   8.6481876230093E+00
(PID.TID 0000.0001) %MON exf_vwind_del2               =   2.7216862051051E-03
(PID.TID 0000.0001) %MON exf_wspeed_max               =   2.1791907416971E+01
(PID.TID 0000.0001) %MON exf_wspeed_min               =   8.4652322470006E-03
(PID.TID 0000.0001) %MON exf_wspeed_mean              =   1.1509579643514E+01
(PID.TID 0000.0001) %MON exf_wspeed_sd                =   4.4484367103802E+00
(PID.TID 0000.0001) %MON exf_wspeed_del2              =   3.8040047518289E-03
(PID.TID 0000.0001) %MON exf_atemp_max                =   2.9634758367294E+02
(PID.TID 0000.0001) %MON exf_atemp_min                =   2.6272666782408E+02
(PID.TID 0000.0001) %MON exf_atemp_mean               =   2.8844171612774E+02
(PID.TID 0000.0001) %MON exf_atemp_sd                 =   4.8475050884819E+00
(PID.TID 0000.0001) %MON exf_atemp_del2               =   4.8620007307595E-03
(PID.TID 0000.0001) %MON exf_aqh_max                  =   1.5056823369034E-02
(PID.TID 0000.0001) %MON exf_aqh_min                  =   1.1494562519878E-03
(PID.TID 0000.0001) %MON exf_aqh_mean                 =   8.2715862256126E-03
(PID.TID 0000.0001) %MON exf_aqh_sd                   =   2.7638826894569E-03
(PID.TID 0000.0001) %MON exf_aqh_del2                 =   2.6513556789982E-06
(PID.TID 0000.0001) %MON exf_lwflux_max               =   1.7072262808240E+02
(PID.TID 0000.0001) %MON exf_lwflux_min               =  -3.5520994079347E+01
(PID.TID 0000.0001) %MON exf_lwflux_mean              =   6.6583217055703E+01
(PID.TID 0000.0001) %MON exf_lwflux_sd                =   2.9705886240208E+01
(PID.TID 0000.0001) %MON exf_lwflux_del2              =   2.2385611490992E-02
(PID.TID 0000.0001) %MON exf_evap_max                 =   4.0714843285060E-07
(PID.TID 0000.0001) %MON exf_evap_min                 =  -6.9014744492675E-08
(PID.TID 0000.0001) %MON exf_evap_mean                =   8.5731008591107E-08
(PID.TID 0000.0001) %MON exf_evap_sd                  =   6.8788358437869E-08
(PID.TID 0000.0001) %MON exf_evap_del2                =   3.3748768296634E-11
(PID.TID 0000.0001) %MON exf_precip_max               =   2.5731257704973E-06
(PID.TID 0000.0001) %MON exf_precip_min               =   0.0000000000000E+00
(PID.TID 0000.0001) %MON exf_precip_mean              =   6.7312594857624E-08
(PID.TID 0000.0001) %MON exf_precip_sd                =   2.0815700112361E-07
(PID.TID 0000.0001) %MON exf_precip_del2              =   6.7961667792413E-11
(PID.TID 0000.0001) %MON exf_swflux_max               =   0.0000000000000E+00
(PID.TID 0000.0001) %MON exf_swflux_min               =  -5.4173495031427E+01
(PID.TID 0000.0001) %MON exf_swflux_mean              =  -3.0398500433778E+00
(PID.TID 0000.0001) %MON exf_swflux_sd                =   7.1948311110675E+00
(PID.TID 0000.0001) %MON exf_swflux_del2              =   2.3700932284405E-03
(PID.TID 0000.0001) %MON exf_swdown_max               =   5.9243103717802E+01
(PID.TID 0000.0001) %MON exf_swdown_min               =   0.0000000000000E+00
(PID.TID 0000.0001) %MON exf_swdown_mean              =   3.3490048344733E+00
(PID.TID 0000.0001) %MON exf_swdown_sd                =   7.9196391939974E+00
(PID.TID 0000.0001) %MON exf_swdown_del2              =   2.6101814142888E-03
(PID.TID 0000.0001) %MON exf_lwdown_max               =   4.0993369018577E+02
(PID.TID 0000.0001) %MON exf_lwdown_min               =   1.9371445848126E+02
(PID.TID 0000.0001) %MON exf_lwdown_mean              =   3.3720605959276E+02
(PID.TID 0000.0001) %MON exf_lwdown_sd                =   3.6468549998236E+01
(PID.TID 0000.0001) %MON exf_lwdown_del2              =   1.0335796302401E-01
(PID.TID 0000.0001) %MON exf_apressure_max            =   1.0255324750857E+05
(PID.TID 0000.0001) %MON exf_apressure_min            =   9.7999920756507E+04
(PID.TID 0000.0001) %MON exf_apressure_mean           =   1.0117836954337E+05
(PID.TID 0000.0001) %MON exf_apressure_sd             =   1.1324154789960E+03
(PID.TID 0000.0001) %MON exf_apressure_del2           =   3.0915808189872E+01
(PID.TID 0000.0001) %MON exf_runoff_max               =   4.6633690723924E-08
(PID.TID 0000.0001) %MON exf_runoff_min               =   0.0000000000000E+00
(PID.TID 0000.0001) %MON exf_runoff_mean              =   1.6070446344693E-09
(PID.TID 0000.0001) %MON exf_runoff_sd                =   5.4409705936606E-09
(PID.TID 0000.0001) %MON exf_runoff_del2              =   1.7602788524736E-12
(PID.TID 0000.0001) // =======================================================
(PID.TID 0000.0001) // End MONITOR EXF statistics
(PID.TID 0000.0001) // =======================================================
 cg2d: Sum(rhs),rhsMax =   9.52370656652953E+04  8.89204171666274E-02
 cg2d: Sum(rhs),rhsMax =   9.53014565952492E+04  8.83595637850936E-02
 cg2d: Sum(rhs),rhsMax =   9.53502870610712E+04  8.77896829619738E-02
 cg2d: Sum(rhs),rhsMax =   9.53835500382996E+04  8.72111617073077E-02
 cg2d: Sum(rhs),rhsMax =   9.54012405467021E+04  8.66243873019227E-02
 cg2d: Sum(rhs),rhsMax =   9.54033556508608E+04  8.60297471894345E-02
 cg2d: Sum(rhs),rhsMax =   9.53898944604048E+04  8.54276285267717E-02
 cg2d: Sum(rhs),rhsMax =   9.53608581300379E+04  8.48184212982526E-02
 cg2d: Sum(rhs),rhsMax =   9.53162498592211E+04  8.42025188448185E-02
 cg2d: Sum(rhs),rhsMax =   9.52560748916297E+04  8.35803157162527E-02
 cg2d: Sum(rhs),rhsMax =   9.51803405142908E+04  8.29522063607995E-02
 cg2d: Sum(rhs),rhsMax =   9.50890560564846E+04  8.23185838143897E-02
 cg2d: Sum(rhs),rhsMax =   9.49822328883148E+04  8.16798402743199E-02
 cg2d: Sum(rhs),rhsMax =   9.48598844190621E+04  8.10363669924932E-02
 cg2d: Sum(rhs),rhsMax =   9.47220260952067E+04  8.03885529293215E-02
 cg2d: Sum(rhs),rhsMax =   9.45686753982122E+04  7.97367832937484E-02
 cg2d: Sum(rhs),rhsMax =   9.43998518420079E+04  7.90814378777753E-02
 cg2d: Sum(rhs),rhsMax =   9.42155769702239E+04  7.84228887139007E-02
 cg2d: Sum(rhs),rhsMax =   9.40158743531103E+04  7.77614972017170E-02
 cg2d: Sum(rhs),rhsMax =   9.38007695842288E+04  7.70976107411622E-02
 cg2d: Sum(rhs),rhsMax =   9.35702902768346E+04  7.64315591735834E-02
 cg2d: Sum(rhs),rhsMax =   9.33244660600012E+04  7.57761570345234E-02
 cg2d: Sum(rhs),rhsMax =   9.30633285744706E+04  7.51244319614969E-02
 cg2d: Sum(rhs),rhsMax =   9.27869114682363E+04  7.44702703834021E-02
 cg2d: Sum(rhs),rhsMax =   9.24952503918431E+04  7.38138188183412E-02
 cg2d: Sum(rhs),rhsMax =   9.21883829934306E+04  7.31552211238281E-02
 cg2d: Sum(rhs),rhsMax =   9.18663489135040E+04  7.24946184341489E-02
 cg2d: Sum(rhs),rhsMax =   9.15291897794250E+04  7.18321483444153E-02
 cg2d: Sum(rhs),rhsMax =   9.11769491996617E+04  7.11679436248031E-02
 cg2d: Sum(rhs),rhsMax =   9.08096727577444E+04  7.05021309997241E-02
 cg2d: Sum(rhs),rhsMax =   9.04274080059779E+04  6.98348298235151E-02
 cg2d: Sum(rhs),rhsMax =   9.00302044588702E+04  6.91661507122141E-02
 cg2d: Sum(rhs),rhsMax =   8.96181135863244E+04  6.84961943141078E-02
 cg2d: Sum(rhs),rhsMax =   8.91911888065360E+04  6.78250503606293E-02
 cg2d: Sum(rhs),rhsMax =   8.87494854786700E+04  6.71527971057659E-02
 cg2d: Sum(rhs),rhsMax =   8.82930608952367E+04  6.64795012133835E-02
 cg2d: Sum(rhs),rhsMax =   8.78219742742479E+04  6.58052180243992E-02
 cg2d: Sum(rhs),rhsMax =   8.73362867510784E+04  6.51299920171924E-02
 cg2d: Sum(rhs),rhsMax =   8.68360613701205E+04  6.44538573292312E-02
 cg2d: Sum(rhs),rhsMax =   8.63213630761244E+04  6.37768383348232E-02
 cg2d: Sum(rhs),rhsMax =   8.57922587053551E+04  6.30989502339068E-02
 cg2d: Sum(rhs),rhsMax =   8.52488169764295E+04  6.24201995914056E-02
 cg2d: Sum(rhs),rhsMax =   8.46911084809688E+04  6.17405846535154E-02
 cg2d: Sum(rhs),rhsMax =   8.41192056739360E+04  6.10600952786738E-02
 cg2d: Sum(rhs),rhsMax =   8.35331828638089E+04  6.03787126465651E-02
(PID.TID 0000.0001)      cg2d_init_res =   6.76411390421438E-01
(PID.TID 0000.0001)      cg2d_iters(min,last) =      -1     150
(PID.TID 0000.0001)      cg2d_last_res =   2.06627623381452E-11
(PID.TID 0000.0001) // =======================================================
(PID.TID 0000.0001) // Begin MONITOR dynamic field statistics
(PID.TID 0000.0001) // =======================================================
(PID.TID 0000.0001) %MON time_tsnumber                =              15812685
(PID.TID 0000.0001) %MON time_secondsf                =   1.2650148000000E+09
(PID.TID 0000.0001) %MON dynstat_eta_max              =   9.6036602061930E-01
(PID.TID 0000.0001) %MON dynstat_eta_min              =  -2.0919105381734E+00
(PID.TID 0000.0001) %MON dynstat_eta_mean             =  -3.1569005380637E-01
(PID.TID 0000.0001) %MON dynstat_eta_sd               =   4.4210945954740E-01
(PID.TID 0000.0001) %MON dynstat_eta_del2             =   1.0341673512059E-06
(PID.TID 0000.0001) %MON dynstat_uvel_max             =   2.9322118112502E+00
(PID.TID 0000.0001) %MON dynstat_uvel_min             =  -2.8281838536876E+00
(PID.TID 0000.0001) %MON dynstat_uvel_mean            =  -1.3853522956334E-02
(PID.TID 0000.0001) %MON dynstat_uvel_sd              =   9.3655167038600E-02
(PID.TID 0000.0001) %MON dynstat_uvel_del2            =   1.8591504503221E-06
(PID.TID 0000.0001) %MON dynstat_vvel_max             =   2.8392155413830E+00
(PID.TID 0000.0001) %MON dynstat_vvel_min             =  -2.6575213083412E+00
(PID.TID 0000.0001) %MON dynstat_vvel_mean            =  -3.9792211955740E-03
(PID.TID 0000.0001) %MON dynstat_vvel_sd              =   8.6653700570290E-02
(PID.TID 0000.0001) %MON dynstat_vvel_del2            =   1.7370950999943E-06
(PID.TID 0000.0001) %MON dynstat_wvel_max             =   4.8988677077280E-02
(PID.TID 0000.0001) %MON dynstat_wvel_min             =  -3.0244679836118E-02
(PID.TID 0000.0001) %MON dynstat_wvel_mean            =   1.4705706042217E-05
(PID.TID 0000.0001) %MON dynstat_wvel_sd              =   1.6629761788712E-03
(PID.TID 0000.0001) %MON dynstat_wvel_del2            =   9.8009568975058E-08
(PID.TID 0000.0001) %MON dynstat_theta_max            =   2.4970009983778E+01
(PID.TID 0000.0001) %MON dynstat_theta_min            =  -2.7605362313054E+00
(PID.TID 0000.0001) %MON dynstat_theta_mean           =   5.5830774940048E+00
(PID.TID 0000.0001) %MON dynstat_theta_sd             =   4.6753447052133E+00
(PID.TID 0000.0001) %MON dynstat_theta_del2           =   7.5062311544532E-06
(PID.TID 0000.0001) %MON dynstat_salt_max             =   8.9624940722270E+01
(PID.TID 0000.0001) %MON dynstat_salt_min             =   2.0157814494322E+00
(PID.TID 0000.0001) %MON dynstat_salt_mean            =   3.5191478618998E+01
(PID.TID 0000.0001) %MON dynstat_salt_sd              =   4.5292936137459E-01
(PID.TID 0000.0001) %MON dynstat_salt_del2            =   1.4938865356557E-06
(PID.TID 0000.0001) %MON dynstat_sst_max              =   2.4959973177233E+01
(PID.TID 0000.0001) %MON dynstat_sst_min              =  -2.7605362313054E+00
(PID.TID 0000.0001) %MON dynstat_sst_mean             =   1.7655366158918E+01
(PID.TID 0000.0001) %MON dynstat_sst_sd               =   3.3925293010109E+00
(PID.TID 0000.0001) %MON dynstat_sst_del2             =   8.9242953228919E-05
(PID.TID 0000.0001) %MON dynstat_sss_max              =   8.9624940722270E+01
(PID.TID 0000.0001) %MON dynstat_sss_min              =   2.0157814494322E+00
(PID.TID 0000.0001) %MON dynstat_sss_mean             =   3.6424496820686E+01
(PID.TID 0000.0001) %MON dynstat_sss_sd               =   4.5425586272081E-01
(PID.TID 0000.0001) %MON dynstat_sss_del2             =   1.7061840919409E-05
(PID.TID 0000.0001) %MON forcing_qnet_max             =   1.7609819629913E+03
(PID.TID 0000.0001) %MON forcing_qnet_min             =  -2.6852925715558E+02
(PID.TID 0000.0001) %MON forcing_qnet_mean            =   3.1430057240279E+02
(PID.TID 0000.0001) %MON forcing_qnet_sd              =   2.8034771085721E+02
(PID.TID 0000.0001) %MON forcing_qnet_del2            =   6.0585366777593E-03
(PID.TID 0000.0001) %MON forcing_qsw_max              =   0.0000000000000E+00
(PID.TID 0000.0001) %MON forcing_qsw_min              =  -1.7606361881312E+02
(PID.TID 0000.0001) %MON forcing_qsw_mean             =  -1.9415982815077E+01
(PID.TID 0000.0001) %MON forcing_qsw_sd               =   3.2465016067117E+01
(PID.TID 0000.0001) %MON forcing_qsw_del2             =   3.5962353477633E-05
(PID.TID 0000.0001) %MON forcing_empmr_max            =   3.7461765436208E-04
(PID.TID 0000.0001) %MON forcing_empmr_min            =  -2.5307988987721E-03
(PID.TID 0000.0001) %MON forcing_empmr_mean           =   2.0463673827226E-05
(PID.TID 0000.0001) %MON forcing_empmr_sd             =   2.1789505979650E-04
(PID.TID 0000.0001) %MON forcing_empmr_del2           =   1.6502346908292E-09
(PID.TID 0000.0001) %MON forcing_fu_max               =   9.5424366292040E-01
(PID.TID 0000.0001) %MON forcing_fu_min               =  -1.5194768864529E-01
(PID.TID 0000.0001) %MON forcing_fu_mean              =   1.7069348579267E-01
(PID.TID 0000.0001) %MON forcing_fu_sd                =   1.7511310444082E-01
(PID.TID 0000.0001) %MON forcing_fu_del2              =   1.0426099741287E-06
(PID.TID 0000.0001) %MON forcing_fv_max               =   1.0306947543598E+00
(PID.TID 0000.0001) %MON forcing_fv_min               =  -7.5400729918715E-01
(PID.TID 0000.0001) %MON forcing_fv_mean              =  -5.6316646163843E-02
(PID.TID 0000.0001) %MON forcing_fv_sd                =   2.3350021204519E-01
(PID.TID 0000.0001) %MON forcing_fv_del2              =   9.8084511756099E-07
(PID.TID 0000.0001) %MON trAdv_CFL_u_max              =   9.9356534812110E-02
(PID.TID 0000.0001) %MON trAdv_CFL_v_max              =   9.8053051550287E-02
(PID.TID 0000.0001) %MON trAdv_CFL_w_max              =   2.9058135536596E-01
(PID.TID 0000.0001) %MON advcfl_uvel_max              =   9.9356534264763E-02
(PID.TID 0000.0001) %MON advcfl_vvel_max              =   9.8064718959642E-02
(PID.TID 0000.0001) %MON advcfl_wvel_max              =   2.8573833277653E-01
(PID.TID 0000.0001) %MON advcfl_W_hf_max              =   2.9058135536596E-01
(PID.TID 0000.0001) %MON pe_b_mean                    =  -7.2401354853175E-03
(PID.TID 0000.0001) %MON ke_max                       =   4.4401731332265E+00
(PID.TID 0000.0001) %MON ke_mean                      =   8.1995072751627E-03
(PID.TID 0000.0001) %MON ke_vol                       =   4.6123795034297E+16
(PID.TID 0000.0001) %MON vort_r_min                   =  -9.6142850318535E-04
(PID.TID 0000.0001) %MON vort_r_max                   =   8.6103592728598E-04
(PID.TID 0000.0001) %MON vort_a_mean                  =   8.2145898033904E-05
(PID.TID 0000.0001) %MON vort_a_sd                    =   1.4008381880535E-05
(PID.TID 0000.0001) %MON vort_p_mean                  =   8.4437928653778E-05
(PID.TID 0000.0001) %MON vort_p_sd                    =   3.4035127712873E-05
(PID.TID 0000.0001) %MON surfExpan_theta_mean         =   5.3152355754215E-04
(PID.TID 0000.0001) %MON surfExpan_salt_mean          =   1.0118406401856E-03
(PID.TID 0000.0001) // =======================================================
(PID.TID 0000.0001) // End MONITOR dynamic field statistics
(PID.TID 0000.0001) // =======================================================
(PID.TID 0000.0001) // =======================================================
(PID.TID 0000.0001) // Begin OBCS MONITOR field statistics
(PID.TID 0000.0001) // =======================================================
(PID.TID 0000.0001) %MON obc_E_uVel_max               =  -8.5548393078706E-02
(PID.TID 0000.0001) %MON obc_E_uVel_min               =  -3.9844583295101E-01
(PID.TID 0000.0001) %MON obc_E_uVel_mean              =  -1.7900830231602E-01
(PID.TID 0000.0001) %MON obc_E_uVel_sd                =   7.2136713810352E-02
(PID.TID 0000.0001) %MON obc_E_uVel_Int               =  -1.2216333745620E+06
(PID.TID 0000.0001) %MON obc_N_vVel_max               =   4.7226729689597E-01
(PID.TID 0000.0001) %MON obc_N_vVel_min               =  -7.8444302813078E-01
(PID.TID 0000.0001) %MON obc_N_vVel_mean              =  -1.4202041051890E-02
(PID.TID 0000.0001) %MON obc_N_vVel_sd                =   4.0918737353118E-02
(PID.TID 0000.0001) %MON obc_N_vVel_Int               =  -2.0265807988441E+08
(PID.TID 0000.0001) %MON obc_S_vVel_max               =   1.3440619501789E+00
(PID.TID 0000.0001) %MON obc_S_vVel_min               =  -1.6006521456220E-01
(PID.TID 0000.0001) %MON obc_S_vVel_mean              =   3.6471628399149E-03
(PID.TID 0000.0001) %MON obc_S_vVel_sd                =   3.0000346940548E-02
(PID.TID 0000.0001) %MON obc_S_vVel_Int               =   1.1090234054862E+08
(PID.TID 0000.0001) %MON obc_E_theta_max              =   1.5981519699097E+01
(PID.TID 0000.0001) %MON obc_E_theta_min              =   1.3104037284851E+01
(PID.TID 0000.0001) %MON obc_E_theta_mean             =   1.4974089986960E+01
(PID.TID 0000.0001) %MON obc_E_theta_sd               =   6.0075505804650E-01
(PID.TID 0000.0001) %MON obc_N_theta_max              =   1.5721092224121E+01
(PID.TID 0000.0001) %MON obc_N_theta_min              =   9.7373789548874E-01
(PID.TID 0000.0001) %MON obc_N_theta_mean             =   5.3443110148828E+00
(PID.TID 0000.0001) %MON obc_N_theta_sd               =   3.5834807335781E+00
(PID.TID 0000.0001) %MON obc_S_theta_max              =   2.4979528427124E+01
(PID.TID 0000.0001) %MON obc_S_theta_min              =   1.5124862194061E+00
(PID.TID 0000.0001) %MON obc_S_theta_mean             =   5.4273114502690E+00
(PID.TID 0000.0001) %MON obc_S_theta_sd               =   5.1694562801555E+00
(PID.TID 0000.0001) %MON obc_E_salt_max               =   3.8703720092773E+01
(PID.TID 0000.0001) %MON obc_E_salt_min               =   3.6289142608643E+01
(PID.TID 0000.0001) %MON obc_E_salt_mean              =   3.6643778075730E+01
(PID.TID 0000.0001) %MON obc_E_salt_sd                =   5.5037722650442E-01
(PID.TID 0000.0001) %MON obc_N_salt_max               =   3.6066974639893E+01
(PID.TID 0000.0001) %MON obc_N_salt_min               =   3.2878395080566E+01
(PID.TID 0000.0001) %MON obc_N_salt_mean              =   3.5117165924185E+01
(PID.TID 0000.0001) %MON obc_N_salt_sd                =   3.1541903364831E-01
(PID.TID 0000.0001) %MON obc_S_salt_max               =   3.7600940704346E+01
(PID.TID 0000.0001) %MON obc_S_salt_min               =   3.4853485107422E+01
(PID.TID 0000.0001) %MON obc_S_salt_mean              =   3.5185630803177E+01
(PID.TID 0000.0001) %MON obc_S_salt_sd                =   4.9502018312198E-01
(PID.TID 0000.0001) // =======================================================
(PID.TID 0000.0001) // End OBCS MONITOR field statistics
(PID.TID 0000.0001) // =======================================================
(PID.TID 0000.0001) // =======================================================
(PID.TID 0000.0001) // Begin MONITOR ptracer field statistics
(PID.TID 0000.0001) // =======================================================
(PID.TID 0000.0001) %MON trcstat_ptracer01_max        =   0.0000000000000E+00
(PID.TID 0000.0001) %MON trcstat_ptracer01_min        =   0.0000000000000E+00
(PID.TID 0000.0001) %MON trcstat_ptracer01_mean       =   0.0000000000000E+00
(PID.TID 0000.0001) %MON trcstat_ptracer01_sd         =   0.0000000000000E+00
(PID.TID 0000.0001) %MON trcstat_ptracer01_del2       =   0.0000000000000E+00
(PID.TID 0000.0001) %MON trcstat_ptracer02_max        =   0.0000000000000E+00
(PID.TID 0000.0001) %MON trcstat_ptracer02_min        =   0.0000000000000E+00
(PID.TID 0000.0001) %MON trcstat_ptracer02_mean       =   0.0000000000000E+00
(PID.TID 0000.0001) %MON trcstat_ptracer02_sd         =   0.0000000000000E+00
(PID.TID 0000.0001) %MON trcstat_ptracer02_del2       =   0.0000000000000E+00
(PID.TID 0000.0001) // =======================================================
(PID.TID 0000.0001) // End MONITOR ptracer field statistics
(PID.TID 0000.0001) // =======================================================
(PID.TID 0000.0001) // =======================================================
(PID.TID 0000.0001) // Begin MONITOR EXF statistics
(PID.TID 0000.0001) // =======================================================
(PID.TID 0000.0001) %MON exf_tsnumber                 =              15812685
(PID.TID 0000.0001) %MON exf_time_sec                 =   1.2650148000000E+09
(PID.TID 0000.0001) %MON exf_ustress_max              =   9.8112331274627E-01
(PID.TID 0000.0001) %MON exf_ustress_min              =  -1.5127429027164E-01
(PID.TID 0000.0001) %MON exf_ustress_mean             =   1.7066169893357E-01
(PID.TID 0000.0001) %MON exf_ustress_sd               =   1.7535748549216E-01
(PID.TID 0000.0001) %MON exf_ustress_del2             =   1.1320311957220E-06
(PID.TID 0000.0001) %MON exf_vstress_max              =   1.0391873142553E+00
(PID.TID 0000.0001) %MON exf_vstress_min              =  -7.5458584248633E-01
(PID.TID 0000.0001) %MON exf_vstress_mean             =  -5.6341464588792E-02
(PID.TID 0000.0001) %MON exf_vstress_sd               =   2.3374455234394E-01
(PID.TID 0000.0001) %MON exf_vstress_del2             =   1.0831528407432E-06
(PID.TID 0000.0001) %MON exf_hflux_max                =   1.7307105694630E+03
(PID.TID 0000.0001) %MON exf_hflux_min                =  -2.4898860677332E+02
(PID.TID 0000.0001) %MON exf_hflux_mean               =   3.1159348114365E+02
(PID.TID 0000.0001) %MON exf_hflux_sd                 =   2.7307117484981E+02
(PID.TID 0000.0001) %MON exf_hflux_del2               =   1.2781923088449E-01
(PID.TID 0000.0001) %MON exf_sflux_max                =   3.7469182144199E-07
(PID.TID 0000.0001) %MON exf_sflux_min                =  -2.5593119465133E-06
(PID.TID 0000.0001) %MON exf_sflux_mean               =   2.0568399542342E-08
(PID.TID 0000.0001) %MON exf_sflux_sd                 =   2.1767709035422E-07
(PID.TID 0000.0001) %MON exf_sflux_del2               =   6.7676648276894E-11
(PID.TID 0000.0001) %MON exf_uwind_max                =   1.9776380855085E+01
(PID.TID 0000.0001) %MON exf_uwind_min                =  -8.0655112030587E+00
(PID.TID 0000.0001) %MON exf_uwind_mean               =   6.7253905877247E+00
(PID.TID 0000.0001) %MON exf_uwind_sd                 =   5.2417903477349E+00
(PID.TID 0000.0001) %MON exf_uwind_del2               =   2.6304817232001E-03
(PID.TID 0000.0001) %MON exf_vwind_max                =   2.0860691651848E+01
(PID.TID 0000.0001) %MON exf_vwind_min                =  -1.7681007777837E+01
(PID.TID 0000.0001) %MON exf_vwind_mean               =  -1.9227450392229E+00
(PID.TID 0000.0001) %MON exf_vwind_sd                 =   8.6154770508765E+00
(PID.TID 0000.0001) %MON exf_vwind_del2               =   2.7211962583724E-03
(PID.TID 0000.0001) %MON exf_wspeed_max               =   2.1822860443315E+01
(PID.TID 0000.0001) %MON exf_wspeed_min               =   1.0946646255494E-02
(PID.TID 0000.0001) %MON exf_wspeed_mean              =   1.1443223023764E+01
(PID.TID 0000.0001) %MON exf_wspeed_sd                =   4.4365848053988E+00
(PID.TID 0000.0001) %MON exf_wspeed_del2              =   3.7845441904265E-03
(PID.TID 0000.0001) %MON exf_atemp_max                =   2.9631105391852E+02
(PID.TID 0000.0001) %MON exf_atemp_min                =   2.6273669881773E+02
(PID.TID 0000.0001) %MON exf_atemp_mean               =   2.8841889095809E+02
(PID.TID 0000.0001) %MON exf_atemp_sd                 =   4.8059077327558E+00
(PID.TID 0000.0001) %MON exf_atemp_del2               =   4.8510868488995E-03
(PID.TID 0000.0001) %MON exf_aqh_max                  =   1.4861441315422E-02
(PID.TID 0000.0001) %MON exf_aqh_min                  =   1.1615463157500E-03
(PID.TID 0000.0001) %MON exf_aqh_mean                 =   8.2191531784632E-03
(PID.TID 0000.0001) %MON exf_aqh_sd                   =   2.7408201810929E-03
(PID.TID 0000.0001) %MON exf_aqh_del2                 =   2.6336572837027E-06
(PID.TID 0000.0001) %MON exf_lwflux_max               =   1.6875101626189E+02
(PID.TID 0000.0001) %MON exf_lwflux_min               =  -2.7506710061655E+01
(PID.TID 0000.0001) %MON exf_lwflux_mean              =   6.6648194940864E+01
(PID.TID 0000.0001) %MON exf_lwflux_sd                =   2.9447247928335E+01
(PID.TID 0000.0001) %MON exf_lwflux_del2              =   2.2381955610380E-02
(PID.TID 0000.0001) %MON exf_evap_max                 =   4.1178069793655E-07
(PID.TID 0000.0001) %MON exf_evap_min                 =  -6.6923159633676E-08
(PID.TID 0000.0001) %MON exf_evap_mean                =   8.6079699139165E-08
(PID.TID 0000.0001) %MON exf_evap_sd                  =   6.7744082611923E-08
(PID.TID 0000.0001) %MON exf_evap_del2                =   3.3651195629974E-11
(PID.TID 0000.0001) %MON exf_precip_max               =   2.5459500231539E-06
(PID.TID 0000.0001) %MON exf_precip_min               =   0.0000000000000E+00
(PID.TID 0000.0001) %MON exf_precip_mean              =   6.3904254962354E-08
(PID.TID 0000.0001) %MON exf_precip_sd                =   1.9870825098376E-07
(PID.TID 0000.0001) %MON exf_precip_del2              =   6.4800897468687E-11
(PID.TID 0000.0001) %MON exf_swflux_max               =   0.0000000000000E+00
(PID.TID 0000.0001) %MON exf_swflux_min               =  -1.7944688006389E+02
(PID.TID 0000.0001) %MON exf_swflux_mean              =  -2.0039457554994E+01
(PID.TID 0000.0001) %MON exf_swflux_sd                =   3.3362890026553E+01
(PID.TID 0000.0001) %MON exf_swflux_del2              =   1.1850448003345E-02
(PID.TID 0000.0001) %MON exf_swdown_max               =   1.9623750386756E+02
(PID.TID 0000.0001) %MON exf_swdown_min               =   0.0000000000000E+00
(PID.TID 0000.0001) %MON exf_swdown_mean              =   2.2089033313081E+01
(PID.TID 0000.0001) %MON exf_swdown_sd                =   3.6753302357264E+01
(PID.TID 0000.0001) %MON exf_swdown_del2              =   1.3062071454910E-02
(PID.TID 0000.0001) %MON exf_lwdown_max               =   4.1348537981377E+02
(PID.TID 0000.0001) %MON exf_lwdown_min               =   2.0301493343165E+02
(PID.TID 0000.0001) %MON exf_lwdown_mean              =   3.3712039650943E+02
(PID.TID 0000.0001) %MON exf_lwdown_sd                =   3.6355767874163E+01
(PID.TID 0000.0001) %MON exf_lwdown_del2              =   1.0332001921726E-01
(PID.TID 0000.0001) %MON exf_apressure_max            =   1.0258432050852E+05
(PID.TID 0000.0001) %MON exf_apressure_min            =   9.8043313794478E+04
(PID.TID 0000.0001) %MON exf_apressure_mean           =   1.0120392231805E+05
(PID.TID 0000.0001) %MON exf_apressure_sd             =   1.1215217954886E+03
(PID.TID 0000.0001) %MON exf_apressure_del2           =   3.0923650696559E+01
(PID.TID 0000.0001) %MON exf_runoff_max               =   4.6633690723924E-08
(PID.TID 0000.0001) %MON exf_runoff_min               =   0.0000000000000E+00
(PID.TID 0000.0001) %MON exf_runoff_mean              =   1.6070446344693E-09
(PID.TID 0000.0001) %MON exf_runoff_sd                =   5.4409705936606E-09
(PID.TID 0000.0001) %MON exf_runoff_del2              =   1.7602788524736E-12
(PID.TID 0000.0001) // =======================================================
(PID.TID 0000.0001) // End MONITOR EXF statistics
(PID.TID 0000.0001) // =======================================================
 cg2d: Sum(rhs),rhsMax =   8.29331162024098E+04  5.96964087139439E-02
 cg2d: Sum(rhs),rhsMax =   8.23190836745995E+04  5.90131484027891E-02
 cg2d: Sum(rhs),rhsMax =   8.16911650876270E+04  5.83288929465043E-02
 cg2d: Sum(rhs),rhsMax =   8.10494420603329E+04  5.76436029386968E-02
 cg2d: Sum(rhs),rhsMax =   8.03939980120242E+04  5.69572406586724E-02
 cg2d: Sum(rhs),rhsMax =   7.97249181512142E+04  5.62697705419323E-02
 cg2d: Sum(rhs),rhsMax =   7.90422894640108E+04  5.55811571084119E-02
 cg2d: Sum(rhs),rhsMax =   7.83462007024005E+04  5.48913604403821E-02
 cg2d: Sum(rhs),rhsMax =   7.76367423721772E+04  5.42003301065228E-02
 cg2d: Sum(rhs),rhsMax =   7.69140067207561E+04  5.35148287377467E-02
 cg2d: Sum(rhs),rhsMax =   7.61780877246475E+04  5.28380206464756E-02
 cg2d: Sum(rhs),rhsMax =   7.54290810768346E+04  5.21601549254615E-02
 cg2d: Sum(rhs),rhsMax =   7.46670841737813E+04  5.14810286988416E-02
 cg2d: Sum(rhs),rhsMax =   7.38921961023739E+04  5.08004282133744E-02
 cg2d: Sum(rhs),rhsMax =   7.31045176264984E+04  5.01181312044159E-02
 cg2d: Sum(rhs),rhsMax =   7.23041511735320E+04  4.94339084359551E-02
 cg2d: Sum(rhs),rhsMax =   7.14912008204914E+04  4.87475236550266E-02
 cg2d: Sum(rhs),rhsMax =   7.06657722801114E+04  4.80587336062131E-02
 cg2d: Sum(rhs),rhsMax =   6.98279728865530E+04  4.73672874620788E-02
 cg2d: Sum(rhs),rhsMax =   6.89779115810717E+04  4.66729262885414E-02
 cg2d: Sum(rhs),rhsMax =   6.81156988973183E+04  4.59753811915204E-02
 cg2d: Sum(rhs),rhsMax =   6.72414469465825E+04  4.52743739763741E-02
 cg2d: Sum(rhs),rhsMax =   6.63552694026949E+04  4.45696180660817E-02
 cg2d: Sum(rhs),rhsMax =   6.54572814868817E+04  4.38608198170743E-02
 cg2d: Sum(rhs),rhsMax =   6.45475999522518E+04  4.31476803301441E-02
 cg2d: Sum(rhs),rhsMax =   6.36263430682676E+04  4.24298964270856E-02
 cg2d: Sum(rhs),rhsMax =   6.26936306048572E+04  4.17071615340395E-02
 cg2d: Sum(rhs),rhsMax =   6.17495838164823E+04  4.09791668656259E-02
 cg2d: Sum(rhs),rhsMax =   6.07943254258822E+04  4.02456033312990E-02
 cg2d: Sum(rhs),rhsMax =   5.98279796077797E+04  3.95061644088494E-02
 cg2d: Sum(rhs),rhsMax =   5.88506719722444E+04  3.87605501038965E-02
 cg2d: Sum(rhs),rhsMax =   5.78625295480339E+04  3.80084720562843E-02
 cg2d: Sum(rhs),rhsMax =   5.68636807656129E+04  3.72496597948115E-02
 cg2d: Sum(rhs),rhsMax =   5.58542554401274E+04  3.64838677769585E-02
 cg2d: Sum(rhs),rhsMax =   5.48343847540817E+04  3.57108827728021E-02
 cg2d: Sum(rhs),rhsMax =   5.38042012399775E+04  3.49305311181788E-02
 cg2d: Sum(rhs),rhsMax =   5.27638387626399E+04  3.41426853475129E-02
 cg2d: Sum(rhs),rhsMax =   5.17134325015283E+04  3.33472697607422E-02
 cg2d: Sum(rhs),rhsMax =   5.06531189327422E+04  3.25442647141788E-02
 cg2d: Sum(rhs),rhsMax =   4.95830358109960E+04  3.17337095784942E-02
 cg2d: Sum(rhs),rhsMax =   4.85033221513169E+04  3.09157049051129E-02
 cg2d: Sum(rhs),rhsMax =   4.74141182107132E+04  3.00904111859153E-02
 cg2d: Sum(rhs),rhsMax =   4.63155654695529E+04  2.92580465500424E-02
 cg2d: Sum(rhs),rhsMax =   4.52078066129333E+04  2.84188850354847E-02
 cg2d: Sum(rhs),rhsMax =   4.40909855117750E+04  2.75732538962506E-02
(PID.TID 0000.0001)      cg2d_init_res =   8.58763768599276E-01
(PID.TID 0000.0001)      cg2d_iters(min,last) =      -1     151
(PID.TID 0000.0001)      cg2d_last_res =   1.84768608484909E-11
(PID.TID 0000.0001) // =======================================================
(PID.TID 0000.0001) // Begin MONITOR dynamic field statistics
(PID.TID 0000.0001) // =======================================================
(PID.TID 0000.0001) %MON time_tsnumber                =              15812730
(PID.TID 0000.0001) %MON time_secondsf                =   1.2650184000000E+09
(PID.TID 0000.0001) %MON dynstat_eta_max              =   1.1990030047606E+00
(PID.TID 0000.0001) %MON dynstat_eta_min              =  -2.5085597691260E+00
(PID.TID 0000.0001) %MON dynstat_eta_mean             =  -1.6662941733325E-01
(PID.TID 0000.0001) %MON dynstat_eta_sd               =   4.8236191165628E-01
(PID.TID 0000.0001) %MON dynstat_eta_del2             =   1.0444837573249E-06
(PID.TID 0000.0001) %MON dynstat_uvel_max             =   2.8517003825118E+00
(PID.TID 0000.0001) %MON dynstat_uvel_min             =  -2.8393145470076E+00
(PID.TID 0000.0001) %MON dynstat_uvel_mean            =  -8.3760244588414E-03
(PID.TID 0000.0001) %MON dynstat_uvel_sd              =   9.3571177490709E-02
(PID.TID 0000.0001) %MON dynstat_uvel_del2            =   1.8598101444440E-06
(PID.TID 0000.0001) %MON dynstat_vvel_max             =   2.8414197654515E+00
(PID.TID 0000.0001) %MON dynstat_vvel_min             =  -2.7321408153914E+00
(PID.TID 0000.0001) %MON dynstat_vvel_mean            =   2.6701754710596E-03
(PID.TID 0000.0001) %MON dynstat_vvel_sd              =   8.6562765136706E-02
(PID.TID 0000.0001) %MON dynstat_vvel_del2            =   1.7383525237536E-06
(PID.TID 0000.0001) %MON dynstat_wvel_max             =   4.4330574050879E-02
(PID.TID 0000.0001) %MON dynstat_wvel_min             =  -3.0047110424089E-02
(PID.TID 0000.0001) %MON dynstat_wvel_mean            =   3.0143378623507E-05
(PID.TID 0000.0001) %MON dynstat_wvel_sd              =   1.6681242379047E-03
(PID.TID 0000.0001) %MON dynstat_wvel_del2            =   9.8502180395051E-08
(PID.TID 0000.0001) %MON dynstat_theta_max            =   2.4970516133284E+01
(PID.TID 0000.0001) %MON dynstat_theta_min            =  -2.7763105928132E+00
(PID.TID 0000.0001) %MON dynstat_theta_mean           =   5.5825598760521E+00
(PID.TID 0000.0001) %MON dynstat_theta_sd             =   4.6746074739581E+00
(PID.TID 0000.0001) %MON dynstat_theta_del2           =   7.5182522789582E-06
(PID.TID 0000.0001) %MON dynstat_salt_max             =   8.9629568274243E+01
(PID.TID 0000.0001) %MON dynstat_salt_min             =   2.0157927504665E+00
(PID.TID 0000.0001) %MON dynstat_salt_mean            =   3.5191432564728E+01
(PID.TID 0000.0001) %MON dynstat_salt_sd              =   4.5286168294264E-01
(PID.TID 0000.0001) %MON dynstat_salt_del2            =   1.4930917113819E-06
(PID.TID 0000.0001) %MON dynstat_sst_max              =   2.4960684044191E+01
(PID.TID 0000.0001) %MON dynstat_sst_min              =  -2.7763105928132E+00
(PID.TID 0000.0001) %MON dynstat_sst_mean             =   1.7653157328693E+01
(PID.TID 0000.0001) %MON dynstat_sst_sd               =   3.3922675094298E+00
(PID.TID 0000.0001) %MON dynstat_sst_del2             =   8.9259280217917E-05
(PID.TID 0000.0001) %MON dynstat_sss_max              =   8.9629568274243E+01
(PID.TID 0000.0001) %MON dynstat_sss_min              =   2.0157927504665E+00
(PID.TID 0000.0001) %MON dynstat_sss_mean             =   3.6424358035271E+01
(PID.TID 0000.0001) %MON dynstat_sss_sd               =   4.5468895272579E-01
(PID.TID 0000.0001) %MON dynstat_sss_del2             =   1.7055762332062E-05
(PID.TID 0000.0001) %MON forcing_qnet_max             =   1.7276520384221E+03
(PID.TID 0000.0001) %MON forcing_qnet_min             =  -2.5266778781806E+02
(PID.TID 0000.0001) %MON forcing_qnet_mean            =   2.7379724047925E+02
(PID.TID 0000.0001) %MON forcing_qnet_sd              =   2.9914850560508E+02
(PID.TID 0000.0001) %MON forcing_qnet_del2            =   6.0153757612624E-03
(PID.TID 0000.0001) %MON forcing_qsw_max              =   0.0000000000000E+00
(PID.TID 0000.0001) %MON forcing_qsw_min              =  -3.4988017786490E+02
(PID.TID 0000.0001) %MON forcing_qsw_mean             =  -5.9890331444913E+01
(PID.TID 0000.0001) %MON forcing_qsw_sd               =   7.3654799939926E+01
(PID.TID 0000.0001) %MON forcing_qsw_del2             =   7.9148083971078E-05
(PID.TID 0000.0001) %MON forcing_empmr_max            =   3.6974464765911E-04
(PID.TID 0000.0001) %MON forcing_empmr_min            =  -2.3025875897211E-03
(PID.TID 0000.0001) %MON forcing_empmr_mean           =   2.4430297563027E-05
(PID.TID 0000.0001) %MON forcing_empmr_sd             =   2.0740171938414E-04
(PID.TID 0000.0001) %MON forcing_empmr_del2           =   1.6259151955945E-09
(PID.TID 0000.0001) %MON forcing_fu_max               =   9.9320888590997E-01
(PID.TID 0000.0001) %MON forcing_fu_min               =  -1.3280288476944E-01
(PID.TID 0000.0001) %MON forcing_fu_mean              =   1.6325169230842E-01
(PID.TID 0000.0001) %MON forcing_fu_sd                =   1.7089722429589E-01
(PID.TID 0000.0001) %MON forcing_fu_del2              =   1.0350858287803E-06
(PID.TID 0000.0001) %MON forcing_fv_max               =   8.7991732951599E-01
(PID.TID 0000.0001) %MON forcing_fv_min               =  -7.7714031431570E-01
(PID.TID 0000.0001) %MON forcing_fv_mean              =  -5.0682427968980E-02
(PID.TID 0000.0001) %MON forcing_fv_sd                =   2.2098769243182E-01
(PID.TID 0000.0001) %MON forcing_fv_del2              =   9.5567620777865E-07
(PID.TID 0000.0001) %MON trAdv_CFL_u_max              =   9.6604896563486E-02
(PID.TID 0000.0001) %MON trAdv_CFL_v_max              =   9.8129165737292E-02
(PID.TID 0000.0001) %MON trAdv_CFL_w_max              =   2.5717165862130E-01
(PID.TID 0000.0001) %MON advcfl_uvel_max              =   9.6604896031328E-02
(PID.TID 0000.0001) %MON advcfl_vvel_max              =   9.8140851472532E-02
(PID.TID 0000.0001) %MON advcfl_wvel_max              =   2.6244815117107E-01
(PID.TID 0000.0001) %MON advcfl_W_hf_max              =   2.6794569896427E-01
(PID.TID 0000.0001) %MON pe_b_mean                    =  -3.6580572386424E-03
(PID.TID 0000.0001) %MON ke_max                       =   4.4252142367549E+00
(PID.TID 0000.0001) %MON ke_mean                      =   8.1189513559104E-03
(PID.TID 0000.0001) %MON ke_vol                       =   4.6123795034297E+16
(PID.TID 0000.0001) %MON vort_r_min                   =  -1.2131288108416E-03
(PID.TID 0000.0001) %MON vort_r_max                   =   8.5303597467431E-04
(PID.TID 0000.0001) %MON vort_a_mean                  =   8.2145901343183E-05
(PID.TID 0000.0001) %MON vort_a_sd                    =   1.3989246725299E-05
(PID.TID 0000.0001) %MON vort_p_mean                  =   8.4437932055392E-05
(PID.TID 0000.0001) %MON vort_p_sd                    =   3.3978905514812E-05
(PID.TID 0000.0001) %MON surfExpan_theta_mean         =   9.3810163397664E-04
(PID.TID 0000.0001) %MON surfExpan_salt_mean          =   1.9235226918896E-03
(PID.TID 0000.0001) // =======================================================
(PID.TID 0000.0001) // End MONITOR dynamic field statistics
(PID.TID 0000.0001) // =======================================================
(PID.TID 0000.0001) // =======================================================
(PID.TID 0000.0001) // Begin OBCS MONITOR field statistics
(PID.TID 0000.0001) // =======================================================
(PID.TID 0000.0001) %MON obc_E_uVel_max               =  -3.1769348715368E-01
(PID.TID 0000.0001) %MON obc_E_uVel_min               =  -6.6953000126001E-01
(PID.TID 0000.0001) %MON obc_E_uVel_mean              =  -4.4127534581083E-01
(PID.TID 0000.0001) %MON obc_E_uVel_sd                =   6.9128433340855E-02
(PID.TID 0000.0001) %MON obc_E_uVel_Int               =  -3.0114619424869E+06
(PID.TID 0000.0001) %MON obc_N_vVel_max               =   5.5597619978115E-01
(PID.TID 0000.0001) %MON obc_N_vVel_min               =  -3.8310687444929E-01
(PID.TID 0000.0001) %MON obc_N_vVel_mean              =  -1.3211274200626E-02
(PID.TID 0000.0001) %MON obc_N_vVel_sd                =   4.0065969067819E-02
(PID.TID 0000.0001) %MON obc_N_vVel_Int               =  -1.8852018893222E+08
(PID.TID 0000.0001) %MON obc_S_vVel_max               =   1.3279338398277E+00
(PID.TID 0000.0001) %MON obc_S_vVel_min               =  -1.5106981881229E-01
(PID.TID 0000.0001) %MON obc_S_vVel_mean              =   1.3429715121019E-02
(PID.TID 0000.0001) %MON obc_S_vVel_sd                =   2.9135659270932E-02
(PID.TID 0000.0001) %MON obc_S_vVel_Int               =   4.0836861560504E+08
(PID.TID 0000.0001) %MON obc_E_theta_max              =   1.5981519699097E+01
(PID.TID 0000.0001) %MON obc_E_theta_min              =   1.3104037284851E+01
(PID.TID 0000.0001) %MON obc_E_theta_mean             =   1.4974089986960E+01
(PID.TID 0000.0001) %MON obc_E_theta_sd               =   6.0075505804650E-01
(PID.TID 0000.0001) %MON obc_N_theta_max              =   1.5721092224121E+01
(PID.TID 0000.0001) %MON obc_N_theta_min              =   9.7373789548874E-01
(PID.TID 0000.0001) %MON obc_N_theta_mean             =   5.3443110148828E+00
(PID.TID 0000.0001) %MON obc_N_theta_sd               =   3.5834807335781E+00
(PID.TID 0000.0001) %MON obc_S_theta_max              =   2.4979528427124E+01
(PID.TID 0000.0001) %MON obc_S_theta_min              =   1.5124862194061E+00
(PID.TID 0000.0001) %MON obc_S_theta_mean             =   5.4273114502690E+00
(PID.TID 0000.0001) %MON obc_S_theta_sd               =   5.1694562801555E+00
(PID.TID 0000.0001) %MON obc_E_salt_max               =   3.8703720092773E+01
(PID.TID 0000.0001) %MON obc_E_salt_min               =   3.6289142608643E+01
(PID.TID 0000.0001) %MON obc_E_salt_mean              =   3.6643778075730E+01
(PID.TID 0000.0001) %MON obc_E_salt_sd                =   5.5037722650442E-01
(PID.TID 0000.0001) %MON obc_N_salt_max               =   3.6066974639893E+01
(PID.TID 0000.0001) %MON obc_N_salt_min               =   3.2878395080566E+01
(PID.TID 0000.0001) %MON obc_N_salt_mean              =   3.5117165924185E+01
(PID.TID 0000.0001) %MON obc_N_salt_sd                =   3.1541903364831E-01
(PID.TID 0000.0001) %MON obc_S_salt_max               =   3.7600940704346E+01
(PID.TID 0000.0001) %MON obc_S_salt_min               =   3.4853485107422E+01
(PID.TID 0000.0001) %MON obc_S_salt_mean              =   3.5185630803177E+01
(PID.TID 0000.0001) %MON obc_S_salt_sd                =   4.9502018312198E-01
(PID.TID 0000.0001) // =======================================================
(PID.TID 0000.0001) // End OBCS MONITOR field statistics
(PID.TID 0000.0001) // =======================================================
(PID.TID 0000.0001) // =======================================================
(PID.TID 0000.0001) // Begin MONITOR ptracer field statistics
(PID.TID 0000.0001) // =======================================================
(PID.TID 0000.0001) %MON trcstat_ptracer01_max        =   0.0000000000000E+00
(PID.TID 0000.0001) %MON trcstat_ptracer01_min        =   0.0000000000000E+00
(PID.TID 0000.0001) %MON trcstat_ptracer01_mean       =   0.0000000000000E+00
(PID.TID 0000.0001) %MON trcstat_ptracer01_sd         =   0.0000000000000E+00
(PID.TID 0000.0001) %MON trcstat_ptracer01_del2       =   0.0000000000000E+00
(PID.TID 0000.0001) %MON trcstat_ptracer02_max        =   0.0000000000000E+00
(PID.TID 0000.0001) %MON trcstat_ptracer02_min        =   0.0000000000000E+00
(PID.TID 0000.0001) %MON trcstat_ptracer02_mean       =   0.0000000000000E+00
(PID.TID 0000.0001) %MON trcstat_ptracer02_sd         =   0.0000000000000E+00
(PID.TID 0000.0001) %MON trcstat_ptracer02_del2       =   0.0000000000000E+00
(PID.TID 0000.0001) // =======================================================
(PID.TID 0000.0001) // End MONITOR ptracer field statistics
(PID.TID 0000.0001) // =======================================================
(PID.TID 0000.0001) // =======================================================
(PID.TID 0000.0001) // Begin MONITOR EXF statistics
(PID.TID 0000.0001) // =======================================================
(PID.TID 0000.0001) %MON exf_tsnumber                 =              15812730
(PID.TID 0000.0001) %MON exf_time_sec                 =   1.2650184000000E+09
(PID.TID 0000.0001) %MON exf_ustress_max              =   1.0197644155572E+00
(PID.TID 0000.0001) %MON exf_ustress_min              =  -1.3333187226158E-01
(PID.TID 0000.0001) %MON exf_ustress_mean             =   1.6315063799425E-01
(PID.TID 0000.0001) %MON exf_ustress_sd               =   1.7113786185468E-01
(PID.TID 0000.0001) %MON exf_ustress_del2             =   1.1246449472157E-06
(PID.TID 0000.0001) %MON exf_vstress_max              =   8.8566667649936E-01
(PID.TID 0000.0001) %MON exf_vstress_min              =  -7.8032123075789E-01
(PID.TID 0000.0001) %MON exf_vstress_mean             =  -5.0510490342826E-02
(PID.TID 0000.0001) %MON exf_vstress_sd               =   2.2102389984237E-01
(PID.TID 0000.0001) %MON exf_vstress_del2             =   1.0567816537861E-06
(PID.TID 0000.0001) %MON exf_hflux_max                =   1.6955459275201E+03
(PID.TID 0000.0001) %MON exf_hflux_min                =  -2.4873237665588E+02
(PID.TID 0000.0001) %MON exf_hflux_mean               =   2.7031687266902E+02
(PID.TID 0000.0001) %MON exf_hflux_sd                 =   2.9315250078498E+02
(PID.TID 0000.0001) %MON exf_hflux_del2               =   1.2316621849100E-01
(PID.TID 0000.0001) %MON exf_sflux_max                =   3.7005719695257E-07
(PID.TID 0000.0001) %MON exf_sflux_min                =  -2.2893106016664E-06
(PID.TID 0000.0001) %MON exf_sflux_mean               =   2.4549070028200E-08
(PID.TID 0000.0001) %MON exf_sflux_sd                 =   2.0703051425153E-07
(PID.TID 0000.0001) %MON exf_sflux_del2               =   6.4308549743204E-11
(PID.TID 0000.0001) %MON exf_uwind_max                =   1.9681107754310E+01
(PID.TID 0000.0001) %MON exf_uwind_min                =  -7.9802403144423E+00
(PID.TID 0000.0001) %MON exf_uwind_mean               =   6.5822153890248E+00
(PID.TID 0000.0001) %MON exf_uwind_sd                 =   5.2329060775436E+00
(PID.TID 0000.0001) %MON exf_uwind_del2               =   2.5968607702889E-03
(PID.TID 0000.0001) %MON exf_vwind_max                =   1.9537202771440E+01
(PID.TID 0000.0001) %MON exf_vwind_min                =  -1.8307725405168E+01
(PID.TID 0000.0001) %MON exf_vwind_mean               =  -1.8154973373585E+00
(PID.TID 0000.0001) %MON exf_vwind_sd                 =   8.3736822127132E+00
(PID.TID 0000.0001) %MON exf_vwind_del2               =   2.6417246988411E-03
(PID.TID 0000.0001) %MON exf_wspeed_max               =   2.1982039600855E+01
(PID.TID 0000.0001) %MON exf_wspeed_min               =   4.5081703040609E-03
(PID.TID 0000.0001) %MON exf_wspeed_mean              =   1.1190041165840E+01
(PID.TID 0000.0001) %MON exf_wspeed_sd                =   4.3481523124415E+00
(PID.TID 0000.0001) %MON exf_wspeed_del2              =   3.7041710392588E-03
(PID.TID 0000.0001) %MON exf_atemp_max                =   2.9629466559394E+02
(PID.TID 0000.0001) %MON exf_atemp_min                =   2.6443673795648E+02
(PID.TID 0000.0001) %MON exf_atemp_mean               =   2.8838914078327E+02
(PID.TID 0000.0001) %MON exf_atemp_sd                 =   4.7072805015651E+00
(PID.TID 0000.0001) %MON exf_atemp_del2               =   4.8328073404971E-03
(PID.TID 0000.0001) %MON exf_aqh_max                  =   1.4863690969230E-02
(PID.TID 0000.0001) %MON exf_aqh_min                  =   1.3406601975898E-03
(PID.TID 0000.0001) %MON exf_aqh_mean                 =   8.1275942008330E-03
(PID.TID 0000.0001) %MON exf_aqh_sd                   =   2.7001805796060E-03
(PID.TID 0000.0001) %MON exf_aqh_del2                 =   2.6024547678051E-06
(PID.TID 0000.0001) %MON exf_lwflux_max               =   1.6647325250496E+02
(PID.TID 0000.0001) %MON exf_lwflux_min               =  -2.4078112693501E+01
(PID.TID 0000.0001) %MON exf_lwflux_mean              =   6.6784403365995E+01
(PID.TID 0000.0001) %MON exf_lwflux_sd                =   2.8712606103969E+01
(PID.TID 0000.0001) %MON exf_lwflux_del2              =   2.2337728476627E-02
(PID.TID 0000.0001) %MON exf_evap_max                 =   4.0094491068826E-07
(PID.TID 0000.0001) %MON exf_evap_min                 =  -6.7197738375204E-08
(PID.TID 0000.0001) %MON exf_evap_mean                =   8.5908498256116E-08
(PID.TID 0000.0001) %MON exf_evap_sd                  =   6.6339086254585E-08
(PID.TID 0000.0001) %MON exf_evap_del2                =   3.3388635309195E-11
(PID.TID 0000.0001) %MON exf_precip_max               =   2.2810548105172E-06
(PID.TID 0000.0001) %MON exf_precip_min               =   0.0000000000000E+00
(PID.TID 0000.0001) %MON exf_precip_mean              =   5.9752383593447E-08
(PID.TID 0000.0001) %MON exf_precip_sd                =   1.8794571871554E-07
(PID.TID 0000.0001) %MON exf_precip_del2              =   6.0981556298720E-11
(PID.TID 0000.0001) %MON exf_swflux_max               =   0.0000000000000E+00
(PID.TID 0000.0001) %MON exf_swflux_min               =  -3.5426668959895E+02
(PID.TID 0000.0001) %MON exf_swflux_mean              =  -6.1091391107802E+01
(PID.TID 0000.0001) %MON exf_swflux_sd                =   7.4671381333173E+01
(PID.TID 0000.0001) %MON exf_swflux_del2              =   2.9378665142395E-02
(PID.TID 0000.0001) %MON exf_swdown_max               =   3.8741066277148E+02
(PID.TID 0000.0001) %MON exf_swdown_min               =   0.0000000000000E+00
(PID.TID 0000.0001) %MON exf_swdown_mean              =   6.7341850357518E+01
(PID.TID 0000.0001) %MON exf_swdown_sd                =   8.2253523040434E+01
(PID.TID 0000.0001) %MON exf_swdown_del2              =   3.2384227005516E-02
(PID.TID 0000.0001) %MON exf_lwdown_max               =   4.1390832422942E+02
(PID.TID 0000.0001) %MON exf_lwdown_min               =   2.0195965554716E+02
(PID.TID 0000.0001) %MON exf_lwdown_mean              =   3.3696759803285E+02
(PID.TID 0000.0001) %MON exf_lwdown_sd                =   3.5853882344483E+01
(PID.TID 0000.0001) %MON exf_lwdown_del2              =   1.0324944537820E-01
(PID.TID 0000.0001) %MON exf_apressure_max            =   1.0261883870154E+05
(PID.TID 0000.0001) %MON exf_apressure_min            =   9.8101933187286E+04
(PID.TID 0000.0001) %MON exf_apressure_mean           =   1.0126869528402E+05
(PID.TID 0000.0001) %MON exf_apressure_sd             =   1.1194165217835E+03
(PID.TID 0000.0001) %MON exf_apressure_del2           =   3.0943584384727E+01
(PID.TID 0000.0001) %MON exf_runoff_max               =   4.6633690723924E-08
(PID.TID 0000.0001) %MON exf_runoff_min               =   0.0000000000000E+00
(PID.TID 0000.0001) %MON exf_runoff_mean              =   1.6070446344693E-09
(PID.TID 0000.0001) %MON exf_runoff_sd                =   5.4409705936606E-09
(PID.TID 0000.0001) %MON exf_runoff_del2              =   1.7602788524736E-12
(PID.TID 0000.0001) // =======================================================
(PID.TID 0000.0001) // End MONITOR EXF statistics
(PID.TID 0000.0001) // =======================================================
 cg2d: Sum(rhs),rhsMax =   4.29652472038840E+04  2.67215296563605E-02
 cg2d: Sum(rhs),rhsMax =   4.18307378747696E+04  2.58640237031610E-02
 cg2d: Sum(rhs),rhsMax =   4.06876048384322E+04  2.50011306577562E-02
 cg2d: Sum(rhs),rhsMax =   3.95359965178962E+04  2.41333188873425E-02
 cg2d: Sum(rhs),rhsMax =   3.83760624257300E+04  2.32611131676772E-02
 cg2d: Sum(rhs),rhsMax =   3.72079531443244E+04  2.23850798468426E-02
 cg2d: Sum(rhs),rhsMax =   3.60318203061425E+04  2.15058172660040E-02
 cg2d: Sum(rhs),rhsMax =   3.48478165737520E+04  2.06239512984506E-02
 cg2d: Sum(rhs),rhsMax =   3.36560956198323E+04  1.97401339316063E-02
 cg2d: Sum(rhs),rhsMax =   3.24568121069591E+04  1.88550423745073E-02
 cg2d: Sum(rhs),rhsMax =   3.12501216673720E+04  1.79693768551750E-02
 cg2d: Sum(rhs),rhsMax =   3.00361808825420E+04  1.70838563673748E-02
 cg2d: Sum(rhs),rhsMax =   2.88151472627007E+04  1.61992126654545E-02
 cg2d: Sum(rhs),rhsMax =   2.75871792261937E+04  1.53161832870566E-02
 cg2d: Sum(rhs),rhsMax =   2.63524360788037E+04  1.44355044476566E-02
 cg2d: Sum(rhs),rhsMax =   2.51110779928875E+04  1.35579044206428E-02
 cg2d: Sum(rhs),rhsMax =   2.38632659864942E+04  1.26899908077542E-02
 cg2d: Sum(rhs),rhsMax =   2.26091619023191E+04  1.18553241834402E-02
 cg2d: Sum(rhs),rhsMax =   2.13489283866169E+04  1.10350225915787E-02
 cg2d: Sum(rhs),rhsMax =   2.00827288679774E+04  1.02244857001941E-02
 cg2d: Sum(rhs),rhsMax =   1.88107275360656E+04  9.41916436547360E-03
 cg2d: Sum(rhs),rhsMax =   1.75330893202118E+04  8.61939883014562E-03
 cg2d: Sum(rhs),rhsMax =   1.62499798679856E+04  7.82551059676213E-03
 cg2d: Sum(rhs),rhsMax =   1.49615655236376E+04  7.03779831769906E-03
 cg2d: Sum(rhs),rhsMax =   1.36680133064986E+04  6.25653466488490E-03
 cg2d: Sum(rhs),rhsMax =   1.23694908892801E+04  5.48196390196804E-03
 cg2d: Sum(rhs),rhsMax =   1.10661665763350E+04  4.71430023827488E-03
 cg2d: Sum(rhs),rhsMax =   9.75820928180539E+03  3.95372714130320E-03
 cg2d: Sum(rhs),rhsMax =   8.44578850775314E+03  3.20039772970653E-03
 cg2d: Sum(rhs),rhsMax =   7.12907432219193E+03  2.45443618273671E-03
 cg2d: Sum(rhs),rhsMax =   5.80823733708099E+03  1.71594003611810E-03
 cg2d: Sum(rhs),rhsMax =   4.48344868624663E+03  9.84982898672968E-04
 cg2d: Sum(rhs),rhsMax =   3.15488000327299E+03  3.91065652006087E-04
 cg2d: Sum(rhs),rhsMax =   1.82270339930789E+03  1.09540632060056E-03
 cg2d: Sum(rhs),rhsMax =   4.87091440854665E+02  1.79328813380072E-03
 cg2d: Sum(rhs),rhsMax =  -8.51782872502394E+02  2.48470397034392E-03
 cg2d: Sum(rhs),rhsMax =  -2.19374613040726E+03  3.18608105106941E-03
 cg2d: Sum(rhs),rhsMax =  -3.53862453408208E+03  3.87724817685828E-03
 cg2d: Sum(rhs),rhsMax =  -4.88624391870773E+03  4.55827012378361E-03
 cg2d: Sum(rhs),rhsMax =  -6.23642977585501E+03  5.22928392365658E-03
 cg2d: Sum(rhs),rhsMax =  -7.58900727592582E+03  5.89044841564049E-03
 cg2d: Sum(rhs),rhsMax =  -8.94380129063359E+03  6.54194193044698E-03
 cg2d: Sum(rhs),rhsMax =  -1.03006364155106E+04  7.18395379387303E-03
 cg2d: Sum(rhs),rhsMax =  -1.16593369924289E+04  7.81668045880688E-03
 cg2d: Sum(rhs),rhsMax =  -1.30197271321465E+04  8.44032065775641E-03
(PID.TID 0000.0001)      cg2d_init_res =   1.05675336613863E+00
(PID.TID 0000.0001)      cg2d_iters(min,last) =      -1     154
(PID.TID 0000.0001)      cg2d_last_res =   1.76917066723496E-11
(PID.TID 0000.0001) // =======================================================
(PID.TID 0000.0001) // Begin MONITOR dynamic field statistics
(PID.TID 0000.0001) // =======================================================
(PID.TID 0000.0001) %MON time_tsnumber                =              15812775
(PID.TID 0000.0001) %MON time_secondsf                =   1.2650220000000E+09
(PID.TID 0000.0001) %MON dynstat_eta_max              =   1.4100870925434E+00
(PID.TID 0000.0001) %MON dynstat_eta_min              =  -2.4207370795371E+00
(PID.TID 0000.0001) %MON dynstat_eta_mean             =   4.9204378643070E-02
(PID.TID 0000.0001) %MON dynstat_eta_sd               =   4.4932102005088E-01
(PID.TID 0000.0001) %MON dynstat_eta_del2             =   1.0816411296062E-06
(PID.TID 0000.0001) %MON dynstat_uvel_max             =   2.8722202960005E+00
(PID.TID 0000.0001) %MON dynstat_uvel_min             =  -2.8138135810652E+00
(PID.TID 0000.0001) %MON dynstat_uvel_mean            =  -3.4260010841908E-04
(PID.TID 0000.0001) %MON dynstat_uvel_sd              =   9.3729436489639E-02
(PID.TID 0000.0001) %MON dynstat_uvel_del2            =   1.8681538059749E-06
(PID.TID 0000.0001) %MON dynstat_vvel_max             =   2.8118916240056E+00
(PID.TID 0000.0001) %MON dynstat_vvel_min             =  -2.7704039075114E+00
(PID.TID 0000.0001) %MON dynstat_vvel_mean            =   8.5124370906659E-03
(PID.TID 0000.0001) %MON dynstat_vvel_sd              =   8.6398174269104E-02
(PID.TID 0000.0001) %MON dynstat_vvel_del2            =   1.7487712453293E-06
(PID.TID 0000.0001) %MON dynstat_wvel_max             =   4.3742006054089E-02
(PID.TID 0000.0001) %MON dynstat_wvel_min             =  -3.1105840316551E-02
(PID.TID 0000.0001) %MON dynstat_wvel_mean            =   3.7573538278250E-05
(PID.TID 0000.0001) %MON dynstat_wvel_sd              =   1.6713425554018E-03
(PID.TID 0000.0001) %MON dynstat_wvel_del2            =   9.9259919356429E-08
(PID.TID 0000.0001) %MON dynstat_theta_max            =   2.4970871835507E+01
(PID.TID 0000.0001) %MON dynstat_theta_min            =  -2.7928515537121E+00
(PID.TID 0000.0001) %MON dynstat_theta_mean           =   5.5818880064157E+00
(PID.TID 0000.0001) %MON dynstat_theta_sd             =   4.6737612345755E+00
(PID.TID 0000.0001) %MON dynstat_theta_del2           =   7.5160004076547E-06
(PID.TID 0000.0001) %MON dynstat_salt_max             =   8.9633931507666E+01
(PID.TID 0000.0001) %MON dynstat_salt_min             =   2.0158029093493E+00
(PID.TID 0000.0001) %MON dynstat_salt_mean            =   3.5191368865227E+01
(PID.TID 0000.0001) %MON dynstat_salt_sd              =   4.5277380630258E-01
(PID.TID 0000.0001) %MON dynstat_salt_del2            =   1.4894402389840E-06
(PID.TID 0000.0001) %MON dynstat_sst_max              =   2.4960851667569E+01
(PID.TID 0000.0001) %MON dynstat_sst_min              =  -2.7928515537121E+00
(PID.TID 0000.0001) %MON dynstat_sst_mean             =   1.7652638384013E+01
(PID.TID 0000.0001) %MON dynstat_sst_sd               =   3.3917416984946E+00
(PID.TID 0000.0001) %MON dynstat_sst_del2             =   8.8982764695440E-05
(PID.TID 0000.0001) %MON dynstat_sss_max              =   8.9633931507666E+01
(PID.TID 0000.0001) %MON dynstat_sss_min              =   2.0158029093493E+00
(PID.TID 0000.0001) %MON dynstat_sss_mean             =   3.6424338569486E+01
(PID.TID 0000.0001) %MON dynstat_sss_sd               =   4.5491326812585E-01
(PID.TID 0000.0001) %MON dynstat_sss_del2             =   1.6995291428930E-05
(PID.TID 0000.0001) %MON forcing_qnet_max             =   1.6702283646922E+03
(PID.TID 0000.0001) %MON forcing_qnet_min             =  -3.8217899425674E+02
(PID.TID 0000.0001) %MON forcing_qnet_mean            =   2.1188185562964E+02
(PID.TID 0000.0001) %MON forcing_qnet_sd              =   3.2746233537171E+02
(PID.TID 0000.0001) %MON forcing_qnet_del2            =   6.0491140874328E-03
(PID.TID 0000.0001) %MON forcing_qsw_max              =   0.0000000000000E+00
(PID.TID 0000.0001) %MON forcing_qsw_min              =  -5.0586781140771E+02
(PID.TID 0000.0001) %MON forcing_qsw_mean             =  -1.2285774399084E+02
(PID.TID 0000.0001) %MON forcing_qsw_sd               =   1.1457000032089E+02
(PID.TID 0000.0001) %MON forcing_qsw_del2             =   1.3056814602197E-04
(PID.TID 0000.0001) %MON forcing_empmr_max            =   3.7528984193523E-04
(PID.TID 0000.0001) %MON forcing_empmr_min            =  -1.7316131031740E-03
(PID.TID 0000.0001) %MON forcing_empmr_mean           =   2.9671272159716E-05
(PID.TID 0000.0001) %MON forcing_empmr_sd             =   1.9293131542326E-04
(PID.TID 0000.0001) %MON forcing_empmr_del2           =   1.6209819399896E-09
(PID.TID 0000.0001) %MON forcing_fu_max               =   1.0562663220480E+00
(PID.TID 0000.0001) %MON forcing_fu_min               =  -1.2511899272849E-01
(PID.TID 0000.0001) %MON forcing_fu_mean              =   1.6143927002079E-01
(PID.TID 0000.0001) %MON forcing_fu_sd                =   1.7241007037133E-01
(PID.TID 0000.0001) %MON forcing_fu_del2              =   1.0384085643453E-06
(PID.TID 0000.0001) %MON forcing_fv_max               =   9.1073396818777E-01
(PID.TID 0000.0001) %MON forcing_fv_min               =  -7.8399384729882E-01
(PID.TID 0000.0001) %MON forcing_fv_mean              =  -4.9725717825572E-02
(PID.TID 0000.0001) %MON forcing_fv_sd                =   2.1877388279612E-01
(PID.TID 0000.0001) %MON forcing_fv_del2              =   9.7126700129228E-07
(PID.TID 0000.0001) %MON trAdv_CFL_u_max              =   9.7300034149549E-02
(PID.TID 0000.0001) %MON trAdv_CFL_v_max              =   9.7109394567385E-02
(PID.TID 0000.0001) %MON trAdv_CFL_w_max              =   3.8146520638219E-01
(PID.TID 0000.0001) %MON advcfl_uvel_max              =   9.7300033613562E-02
(PID.TID 0000.0001) %MON advcfl_vvel_max              =   9.7120968039913E-02
(PID.TID 0000.0001) %MON advcfl_wvel_max              =   3.8545770616355E-01
(PID.TID 0000.0001) %MON advcfl_W_hf_max              =   3.9010251669045E-01
(PID.TID 0000.0001) %MON pe_b_mean                    =   1.5071874183044E-03
(PID.TID 0000.0001) %MON ke_max                       =   4.4678746925127E+00
(PID.TID 0000.0001) %MON ke_mean                      =   8.1171604635937E-03
(PID.TID 0000.0001) %MON ke_vol                       =   4.6123795034297E+16
(PID.TID 0000.0001) %MON vort_r_min                   =  -1.5427053668761E-03
(PID.TID 0000.0001) %MON vort_r_max                   =   1.3471277883834E-03
(PID.TID 0000.0001) %MON vort_a_mean                  =   8.2145904068303E-05
(PID.TID 0000.0001) %MON vort_a_sd                    =   1.4004211564957E-05
(PID.TID 0000.0001) %MON vort_p_mean                  =   8.4437934856548E-05
(PID.TID 0000.0001) %MON vort_p_sd                    =   3.3980318732594E-05
(PID.TID 0000.0001) %MON surfExpan_theta_mean         =   1.1052390294825E-03
(PID.TID 0000.0001) %MON surfExpan_salt_mean          =   2.3405809607184E-03
(PID.TID 0000.0001) // =======================================================
(PID.TID 0000.0001) // End MONITOR dynamic field statistics
(PID.TID 0000.0001) // =======================================================
(PID.TID 0000.0001) // =======================================================
(PID.TID 0000.0001) // Begin OBCS MONITOR field statistics
(PID.TID 0000.0001) // =======================================================
(PID.TID 0000.0001) %MON obc_E_uVel_max               =  -4.4225833476915E-01
(PID.TID 0000.0001) %MON obc_E_uVel_min               =  -8.2800444340833E-01
(PID.TID 0000.0001) %MON obc_E_uVel_mean              =  -5.9346536009418E-01
(PID.TID 0000.0001) %MON obc_E_uVel_sd                =   7.1509406466243E-02
(PID.TID 0000.0001) %MON obc_E_uVel_Int               =  -4.0500752264417E+06
(PID.TID 0000.0001) %MON obc_N_vVel_max               =   6.1498925124350E-01
(PID.TID 0000.0001) %MON obc_N_vVel_min               =  -2.5283715067236E-01
(PID.TID 0000.0001) %MON obc_N_vVel_mean              =  -9.0075503704774E-03
(PID.TID 0000.0001) %MON obc_N_vVel_sd                =   3.8690120067722E-02
(PID.TID 0000.0001) %MON obc_N_vVel_Int               =  -1.2853454344157E+08
(PID.TID 0000.0001) %MON obc_S_vVel_max               =   1.3033181337463E+00
(PID.TID 0000.0001) %MON obc_S_vVel_min               =  -1.5140759558222E-01
(PID.TID 0000.0001) %MON obc_S_vVel_mean              =   1.9670872214923E-02
(PID.TID 0000.0001) %MON obc_S_vVel_sd                =   2.9031968882254E-02
(PID.TID 0000.0001) %MON obc_S_vVel_Int               =   5.9814871587107E+08
(PID.TID 0000.0001) %MON obc_E_theta_max              =   1.5981519699097E+01
(PID.TID 0000.0001) %MON obc_E_theta_min              =   1.3104037284851E+01
(PID.TID 0000.0001) %MON obc_E_theta_mean             =   1.4974089986960E+01
(PID.TID 0000.0001) %MON obc_E_theta_sd               =   6.0075505804650E-01
(PID.TID 0000.0001) %MON obc_N_theta_max              =   1.5721092224121E+01
(PID.TID 0000.0001) %MON obc_N_theta_min              =   9.7373789548874E-01
(PID.TID 0000.0001) %MON obc_N_theta_mean             =   5.3443110148828E+00
(PID.TID 0000.0001) %MON obc_N_theta_sd               =   3.5834807335781E+00
(PID.TID 0000.0001) %MON obc_S_theta_max              =   2.4979528427124E+01
(PID.TID 0000.0001) %MON obc_S_theta_min              =   1.5124862194061E+00
(PID.TID 0000.0001) %MON obc_S_theta_mean             =   5.4273114502690E+00
(PID.TID 0000.0001) %MON obc_S_theta_sd               =   5.1694562801555E+00
(PID.TID 0000.0001) %MON obc_E_salt_max               =   3.8703720092773E+01
(PID.TID 0000.0001) %MON obc_E_salt_min               =   3.6289142608643E+01
(PID.TID 0000.0001) %MON obc_E_salt_mean              =   3.6643778075730E+01
(PID.TID 0000.0001) %MON obc_E_salt_sd                =   5.5037722650442E-01
(PID.TID 0000.0001) %MON obc_N_salt_max               =   3.6066974639893E+01
(PID.TID 0000.0001) %MON obc_N_salt_min               =   3.2878395080566E+01
(PID.TID 0000.0001) %MON obc_N_salt_mean              =   3.5117165924185E+01
(PID.TID 0000.0001) %MON obc_N_salt_sd                =   3.1541903364831E-01
(PID.TID 0000.0001) %MON obc_S_salt_max               =   3.7600940704346E+01
(PID.TID 0000.0001) %MON obc_S_salt_min               =   3.4853485107422E+01
(PID.TID 0000.0001) %MON obc_S_salt_mean              =   3.5185630803177E+01
(PID.TID 0000.0001) %MON obc_S_salt_sd                =   4.9502018312198E-01
(PID.TID 0000.0001) // =======================================================
(PID.TID 0000.0001) // End OBCS MONITOR field statistics
(PID.TID 0000.0001) // =======================================================
(PID.TID 0000.0001) // =======================================================
(PID.TID 0000.0001) // Begin MONITOR ptracer field statistics
(PID.TID 0000.0001) // =======================================================
(PID.TID 0000.0001) %MON trcstat_ptracer01_max        =   0.0000000000000E+00
(PID.TID 0000.0001) %MON trcstat_ptracer01_min        =   0.0000000000000E+00
(PID.TID 0000.0001) %MON trcstat_ptracer01_mean       =   0.0000000000000E+00
(PID.TID 0000.0001) %MON trcstat_ptracer01_sd         =   0.0000000000000E+00
(PID.TID 0000.0001) %MON trcstat_ptracer01_del2       =   0.0000000000000E+00
(PID.TID 0000.0001) %MON trcstat_ptracer02_max        =   0.0000000000000E+00
(PID.TID 0000.0001) %MON trcstat_ptracer02_min        =   0.0000000000000E+00
(PID.TID 0000.0001) %MON trcstat_ptracer02_mean       =   0.0000000000000E+00
(PID.TID 0000.0001) %MON trcstat_ptracer02_sd         =   0.0000000000000E+00
(PID.TID 0000.0001) %MON trcstat_ptracer02_del2       =   0.0000000000000E+00
(PID.TID 0000.0001) // =======================================================
(PID.TID 0000.0001) // End MONITOR ptracer field statistics
(PID.TID 0000.0001) // =======================================================
(PID.TID 0000.0001) // =======================================================
(PID.TID 0000.0001) // Begin MONITOR EXF statistics
(PID.TID 0000.0001) // =======================================================
(PID.TID 0000.0001) %MON exf_tsnumber                 =              15812775
(PID.TID 0000.0001) %MON exf_time_sec                 =   1.2650220000000E+09
(PID.TID 0000.0001) %MON exf_ustress_max              =   1.0981746385648E+00
(PID.TID 0000.0001) %MON exf_ustress_min              =  -1.2535954086048E-01
(PID.TID 0000.0001) %MON exf_ustress_mean             =   1.6145940218658E-01
(PID.TID 0000.0001) %MON exf_ustress_sd               =   1.7284159005943E-01
(PID.TID 0000.0001) %MON exf_ustress_del2             =   1.1318810984958E-06
(PID.TID 0000.0001) %MON exf_vstress_max              =   9.2059051993769E-01
(PID.TID 0000.0001) %MON exf_vstress_min              =  -7.8462098319611E-01
(PID.TID 0000.0001) %MON exf_vstress_mean             =  -4.9668477924669E-02
(PID.TID 0000.0001) %MON exf_vstress_sd               =   2.1899841101216E-01
(PID.TID 0000.0001) %MON exf_vstress_del2             =   1.0757146275481E-06
(PID.TID 0000.0001) %MON exf_hflux_max                =   1.6367874294061E+03
(PID.TID 0000.0001) %MON exf_hflux_min                =  -3.8683469581007E+02
(PID.TID 0000.0001) %MON exf_hflux_mean               =   2.0773055227170E+02
(PID.TID 0000.0001) %MON exf_hflux_sd                 =   3.2233438292015E+02
(PID.TID 0000.0001) %MON exf_hflux_del2               =   1.1845946459677E-01
(PID.TID 0000.0001) %MON exf_sflux_max                =   3.7611593475484E-07
(PID.TID 0000.0001) %MON exf_sflux_min                =  -1.7034330369013E-06
(PID.TID 0000.0001) %MON exf_sflux_mean               =   2.9805847804933E-08
(PID.TID 0000.0001) %MON exf_sflux_sd                 =   1.9253730286170E-07
(PID.TID 0000.0001) %MON exf_sflux_del2               =   5.9819602004177E-11
(PID.TID 0000.0001) %MON exf_uwind_max                =   2.1167871806726E+01
(PID.TID 0000.0001) %MON exf_uwind_min                =  -8.4034543438575E+00
(PID.TID 0000.0001) %MON exf_uwind_mean               =   6.4795692659743E+00
(PID.TID 0000.0001) %MON exf_uwind_sd                 =   5.3324332223084E+00
(PID.TID 0000.0001) %MON exf_uwind_del2               =   2.5932832106489E-03
(PID.TID 0000.0001) %MON exf_vwind_max                =   2.0047833121890E+01
(PID.TID 0000.0001) %MON exf_vwind_min                =  -1.8537230766018E+01
(PID.TID 0000.0001) %MON exf_vwind_mean               =  -1.8270302415728E+00
(PID.TID 0000.0001) %MON exf_vwind_sd                 =   8.3374381046813E+00
(PID.TID 0000.0001) %MON exf_vwind_del2               =   2.6323324125678E-03
(PID.TID 0000.0001) %MON exf_wspeed_max               =   2.1972914869127E+01
(PID.TID 0000.0001) %MON exf_wspeed_min               =   1.2851778739463E-02
(PID.TID 0000.0001) %MON exf_wspeed_mean              =   1.1148428915575E+01
(PID.TID 0000.0001) %MON exf_wspeed_sd                =   4.3569609030062E+00
(PID.TID 0000.0001) %MON exf_wspeed_del2              =   3.6949664901675E-03
(PID.TID 0000.0001) %MON exf_atemp_max                =   2.9630872027429E+02
(PID.TID 0000.0001) %MON exf_atemp_min                =   2.6455507935600E+02
(PID.TID 0000.0001) %MON exf_atemp_mean               =   2.8839764750138E+02
(PID.TID 0000.0001) %MON exf_atemp_sd                 =   4.6560922873625E+00
(PID.TID 0000.0001) %MON exf_atemp_del2               =   4.8303144554540E-03
(PID.TID 0000.0001) %MON exf_aqh_max                  =   1.4823202108470E-02
(PID.TID 0000.0001) %MON exf_aqh_min                  =   1.3860255096622E-03
(PID.TID 0000.0001) %MON exf_aqh_mean                 =   8.0719359973299E-03
(PID.TID 0000.0001) %MON exf_aqh_sd                   =   2.6652193634760E-03
(PID.TID 0000.0001) %MON exf_aqh_del2                 =   2.5825695431593E-06
(PID.TID 0000.0001) %MON exf_lwflux_max               =   1.6133888764679E+02
(PID.TID 0000.0001) %MON exf_lwflux_min               =  -1.4662534182970E+01
(PID.TID 0000.0001) %MON exf_lwflux_mean              =   6.6640050431492E+01
(PID.TID 0000.0001) %MON exf_lwflux_sd                =   2.7455086265765E+01
(PID.TID 0000.0001) %MON exf_lwflux_del2              =   2.2150515357201E-02
(PID.TID 0000.0001) %MON exf_evap_max                 =   3.9838566344187E-07
(PID.TID 0000.0001) %MON exf_evap_min                 =  -7.7620132122714E-08
(PID.TID 0000.0001) %MON exf_evap_mean                =   8.6497894845827E-08
(PID.TID 0000.0001) %MON exf_evap_sd                  =   6.5511280584037E-08
(PID.TID 0000.0001) %MON exf_evap_del2                =   3.3388642408855E-11
(PID.TID 0000.0001) %MON exf_precip_max               =   1.6900597191477E-06
(PID.TID 0000.0001) %MON exf_precip_min               =   0.0000000000000E+00
(PID.TID 0000.0001) %MON exf_precip_mean              =   5.5085002406425E-08
(PID.TID 0000.0001) %MON exf_precip_sd                =   1.7315730336560E-07
(PID.TID 0000.0001) %MON exf_precip_del2              =   5.5886700889527E-11
(PID.TID 0000.0001) %MON exf_swflux_max               =   0.0000000000000E+00
(PID.TID 0000.0001) %MON exf_swflux_min               =  -5.0871880261979E+02
(PID.TID 0000.0001) %MON exf_swflux_mean              =  -1.2447367715930E+02
(PID.TID 0000.0001) %MON exf_swflux_sd                =   1.1539592533326E+02
(PID.TID 0000.0001) %MON exf_swflux_del2              =   5.1667887421590E-02
(PID.TID 0000.0001) %MON exf_swdown_max               =   5.5612686298300E+02
(PID.TID 0000.0001) %MON exf_swdown_min               =   0.0000000000000E+00
(PID.TID 0000.0001) %MON exf_swdown_mean              =   1.3720062967631E+02
(PID.TID 0000.0001) %MON exf_swdown_sd                =   1.2708049982037E+02
(PID.TID 0000.0001) %MON exf_swdown_del2              =   5.6950332171148E-02
(PID.TID 0000.0001) %MON exf_lwdown_max               =   4.1670382103071E+02
(PID.TID 0000.0001) %MON exf_lwdown_min               =   2.0946127519214E+02
(PID.TID 0000.0001) %MON exf_lwdown_mean              =   3.3711341539519E+02
(PID.TID 0000.0001) %MON exf_lwdown_sd                =   3.4988967430275E+01
(PID.TID 0000.0001) %MON exf_lwdown_del2              =   1.0326172830075E-01
(PID.TID 0000.0001) %MON exf_apressure_max            =   1.0266562304531E+05
(PID.TID 0000.0001) %MON exf_apressure_min            =   9.8157625563616E+04
(PID.TID 0000.0001) %MON exf_apressure_mean           =   1.0130918903429E+05
(PID.TID 0000.0001) %MON exf_apressure_sd             =   1.1153639343314E+03
(PID.TID 0000.0001) %MON exf_apressure_del2           =   3.0956030883618E+01
(PID.TID 0000.0001) %MON exf_runoff_max               =   4.6633690723924E-08
(PID.TID 0000.0001) %MON exf_runoff_min               =   0.0000000000000E+00
(PID.TID 0000.0001) %MON exf_runoff_mean              =   1.6070446344693E-09
(PID.TID 0000.0001) %MON exf_runoff_sd                =   5.4409705936606E-09
(PID.TID 0000.0001) %MON exf_runoff_del2              =   1.7602788524736E-12
(PID.TID 0000.0001) // =======================================================
(PID.TID 0000.0001) // End MONITOR EXF statistics
(PID.TID 0000.0001) // =======================================================
 cg2d: Sum(rhs),rhsMax =  -1.43816307368726E+04  9.05507394762571E-03
 cg2d: Sum(rhs),rhsMax =  -1.57448715228407E+04  9.66508424498411E-03
 cg2d: Sum(rhs),rhsMax =  -1.71092730428928E+04  1.02775302883037E-02
 cg2d: Sum(rhs),rhsMax =  -1.84746587090792E+04  1.08841032755823E-02
 cg2d: Sum(rhs),rhsMax =  -1.98408518152535E+04  1.14838485924035E-02
 cg2d: Sum(rhs),rhsMax =  -2.12076755596745E+04  1.20764183559983E-02
 cg2d: Sum(rhs),rhsMax =  -2.25749530676139E+04  1.26615779042830E-02
 cg2d: Sum(rhs),rhsMax =  -2.39425074139494E+04  1.32390611168973E-02
 cg2d: Sum(rhs),rhsMax =  -2.53101616457580E+04  1.38099017796568E-02
 cg2d: Sum(rhs),rhsMax =  -2.66777388049051E+04  1.43729504418022E-02
 cg2d: Sum(rhs),rhsMax =  -2.80450619506120E+04  1.49277345314167E-02
 cg2d: Sum(rhs),rhsMax =  -2.94119541820142E+04  1.54738849246538E-02
 cg2d: Sum(rhs),rhsMax =  -3.07782386607073E+04  1.60109955923965E-02
 cg2d: Sum(rhs),rhsMax =  -3.21437386332680E+04  1.65386301558912E-02
 cg2d: Sum(rhs),rhsMax =  -3.35082774537491E+04  1.70563314108335E-02
 cg2d: Sum(rhs),rhsMax =  -3.48716786061608E+04  1.75636335043231E-02
 cg2d: Sum(rhs),rhsMax =  -3.62337657269125E+04  1.80600762280837E-02
 cg2d: Sum(rhs),rhsMax =  -3.75943626272276E+04  1.85452206949516E-02
 cg2d: Sum(rhs),rhsMax =  -3.89532933155301E+04  1.90186655486007E-02
 cg2d: Sum(rhs),rhsMax =  -4.03103820197938E+04  1.94800628005927E-02
 cg2d: Sum(rhs),rhsMax =  -4.16654532098402E+04  1.99291324018615E-02
 cg2d: Sum(rhs),rhsMax =  -4.30183316196181E+04  2.03656747303748E-02
 cg2d: Sum(rhs),rhsMax =  -4.43688422694182E+04  2.07895803062553E-02
 cg2d: Sum(rhs),rhsMax =  -4.57168104880524E+04  2.12008362758577E-02
 cg2d: Sum(rhs),rhsMax =  -4.70620619349812E+04  2.15995294100329E-02
 cg2d: Sum(rhs),rhsMax =  -4.84044226223928E+04  2.19858458009221E-02
 cg2d: Sum(rhs),rhsMax =  -4.97437189372165E+04  2.23600671936117E-02
 cg2d: Sum(rhs),rhsMax =  -5.10797776630957E+04  2.27225641200458E-02
 cg2d: Sum(rhs),rhsMax =  -5.24124260022903E+04  2.30737859976354E-02
 cg2d: Sum(rhs),rhsMax =  -5.37414915975145E+04  2.34142485335354E-02
 cg2d: Sum(rhs),rhsMax =  -5.50668025537222E+04  2.37445191082644E-02
 cg2d: Sum(rhs),rhsMax =  -5.63881874598171E+04  2.40652011578196E-02
 cg2d: Sum(rhs),rhsMax =  -5.77054754102884E+04  2.43769187826218E-02
 cg2d: Sum(rhs),rhsMax =  -5.90184960267872E+04  2.46803027765401E-02
 cg2d: Sum(rhs),rhsMax =  -6.03270794796195E+04  2.49759789730518E-02
 cg2d: Sum(rhs),rhsMax =  -6.16310565091566E+04  2.52742893328957E-02
 cg2d: Sum(rhs),rhsMax =  -6.29302584471864E+04  2.55692811176233E-02
 cg2d: Sum(rhs),rhsMax =  -6.42245172381580E+04  2.58579569323524E-02
 cg2d: Sum(rhs),rhsMax =  -6.55136654603579E+04  2.61407661565413E-02
 cg2d: Sum(rhs),rhsMax =  -6.67975363469918E+04  2.64181444817094E-02
 cg2d: Sum(rhs),rhsMax =  -6.80759638071851E+04  2.66905115923865E-02
 cg2d: Sum(rhs),rhsMax =  -6.93487824468788E+04  2.69582686045863E-02
 cg2d: Sum(rhs),rhsMax =  -7.06158275896464E+04  2.72217950963306E-02
 cg2d: Sum(rhs),rhsMax =  -7.18769352974025E+04  2.74814455437277E-02
 cg2d: Sum(rhs),rhsMax =  -7.31319423910164E+04  2.77375458479673E-02
(PID.TID 0000.0001)      cg2d_init_res =   1.10562875564140E+00
(PID.TID 0000.0001)      cg2d_iters(min,last) =      -1     154
(PID.TID 0000.0001)      cg2d_last_res =   1.83037261306497E-11
(PID.TID 0000.0001) // =======================================================
(PID.TID 0000.0001) // Begin MONITOR dynamic field statistics
(PID.TID 0000.0001) // =======================================================
(PID.TID 0000.0001) %MON time_tsnumber                =              15812820
(PID.TID 0000.0001) %MON time_secondsf                =   1.2650256000000E+09
(PID.TID 0000.0001) %MON dynstat_eta_max              =   1.5431310117957E+00
(PID.TID 0000.0001) %MON dynstat_eta_min              =  -1.8445974857508E+00
(PID.TID 0000.0001) %MON dynstat_eta_mean             =   2.7638150537164E-01
(PID.TID 0000.0001) %MON dynstat_eta_sd               =   3.5767290702594E-01
(PID.TID 0000.0001) %MON dynstat_eta_del2             =   1.1320351858505E-06
(PID.TID 0000.0001) %MON dynstat_uvel_max             =   2.8374357017912E+00
(PID.TID 0000.0001) %MON dynstat_uvel_min             =  -2.8153981500830E+00
(PID.TID 0000.0001) %MON dynstat_uvel_mean            =   8.1306853091760E-03
(PID.TID 0000.0001) %MON dynstat_uvel_sd              =   9.3982523867781E-02
(PID.TID 0000.0001) %MON dynstat_uvel_del2            =   1.8848772327195E-06
(PID.TID 0000.0001) %MON dynstat_vvel_max             =   2.7648425142532E+00
(PID.TID 0000.0001) %MON dynstat_vvel_min             =  -2.7716146847181E+00
(PID.TID 0000.0001) %MON dynstat_vvel_mean            =   1.1994290361855E-02
(PID.TID 0000.0001) %MON dynstat_vvel_sd              =   8.6239871229657E-02
(PID.TID 0000.0001) %MON dynstat_vvel_del2            =   1.7676421883655E-06
(PID.TID 0000.0001) %MON dynstat_wvel_max             =   4.2508615065280E-02
(PID.TID 0000.0001) %MON dynstat_wvel_min             =  -2.9419846565445E-02
(PID.TID 0000.0001) %MON dynstat_wvel_mean            =   3.5081269046960E-05
(PID.TID 0000.0001) %MON dynstat_wvel_sd              =   1.6738146034936E-03
(PID.TID 0000.0001) %MON dynstat_wvel_del2            =   1.0009017559592E-07
(PID.TID 0000.0001) %MON dynstat_theta_max            =   2.4970639978384E+01
(PID.TID 0000.0001) %MON dynstat_theta_min            =  -2.8083132421966E+00
(PID.TID 0000.0001) %MON dynstat_theta_mean           =   5.5812264809687E+00
(PID.TID 0000.0001) %MON dynstat_theta_sd             =   4.6730002347760E+00
(PID.TID 0000.0001) %MON dynstat_theta_del2           =   7.5045753835338E-06
(PID.TID 0000.0001) %MON dynstat_salt_max             =   8.9638046806218E+01
(PID.TID 0000.0001) %MON dynstat_salt_min             =   2.0158126092779E+00
(PID.TID 0000.0001) %MON dynstat_salt_mean            =   3.5191304002138E+01
(PID.TID 0000.0001) %MON dynstat_salt_sd              =   4.5268871148204E-01
(PID.TID 0000.0001) %MON dynstat_salt_del2            =   1.4845263984799E-06
(PID.TID 0000.0001) %MON dynstat_sst_max              =   2.4960353877049E+01
(PID.TID 0000.0001) %MON dynstat_sst_min              =  -2.8083132421966E+00
(PID.TID 0000.0001) %MON dynstat_sst_mean             =   1.7654668172816E+01
(PID.TID 0000.0001) %MON dynstat_sst_sd               =   3.3912551614756E+00
(PID.TID 0000.0001) %MON dynstat_sst_del2             =   8.8584914824737E-05
(PID.TID 0000.0001) %MON dynstat_sss_max              =   8.9638046806218E+01
(PID.TID 0000.0001) %MON dynstat_sss_min              =   2.0158126092779E+00
(PID.TID 0000.0001) %MON dynstat_sss_mean             =   3.6424490467457E+01
(PID.TID 0000.0001) %MON dynstat_sss_sd               =   4.5486194235955E-01
(PID.TID 0000.0001) %MON dynstat_sss_del2             =   1.6919240573283E-05
(PID.TID 0000.0001) %MON forcing_qnet_max             =   1.5664970050196E+03
(PID.TID 0000.0001) %MON forcing_qnet_min             =  -4.9685656275604E+02
(PID.TID 0000.0001) %MON forcing_qnet_mean            =   1.3233384391285E+02
(PID.TID 0000.0001) %MON forcing_qnet_sd              =   3.4053653576413E+02
(PID.TID 0000.0001) %MON forcing_qnet_del2            =   6.1081037621509E-03
(PID.TID 0000.0001) %MON forcing_qsw_max              =  -6.6362305018247E+00
(PID.TID 0000.0001) %MON forcing_qsw_min              =  -6.1278688304151E+02
(PID.TID 0000.0001) %MON forcing_qsw_mean             =  -2.0243898796626E+02
(PID.TID 0000.0001) %MON forcing_qsw_sd               =   1.4036356106620E+02
(PID.TID 0000.0001) %MON forcing_qsw_del2             =   1.7725753149758E-04
(PID.TID 0000.0001) %MON forcing_empmr_max            =   3.8829483788877E-04
(PID.TID 0000.0001) %MON forcing_empmr_min            =  -1.5423097210580E-03
(PID.TID 0000.0001) %MON forcing_empmr_mean           =   3.4733834905716E-05
(PID.TID 0000.0001) %MON forcing_empmr_sd             =   1.8029270216071E-04
(PID.TID 0000.0001) %MON forcing_empmr_del2           =   1.6154753170523E-09
(PID.TID 0000.0001) %MON forcing_fu_max               =   1.0248938658987E+00
(PID.TID 0000.0001) %MON forcing_fu_min               =  -1.2622440697228E-01
(PID.TID 0000.0001) %MON forcing_fu_mean              =   1.6073091684953E-01
(PID.TID 0000.0001) %MON forcing_fu_sd                =   1.7459583897551E-01
(PID.TID 0000.0001) %MON forcing_fu_del2              =   1.0433664481958E-06
(PID.TID 0000.0001) %MON forcing_fv_max               =   1.0189790371081E+00
(PID.TID 0000.0001) %MON forcing_fv_min               =  -7.6346414709201E-01
(PID.TID 0000.0001) %MON forcing_fv_mean              =  -4.8223917916498E-02
(PID.TID 0000.0001) %MON forcing_fv_sd                =   2.1611001115541E-01
(PID.TID 0000.0001) %MON forcing_fv_del2              =   9.7366486980844E-07
(PID.TID 0000.0001) %MON trAdv_CFL_u_max              =   9.6121662765862E-02
(PID.TID 0000.0001) %MON trAdv_CFL_v_max              =   9.5741233477866E-02
(PID.TID 0000.0001) %MON trAdv_CFL_w_max              =   3.4066720041675E-01
(PID.TID 0000.0001) %MON advcfl_uvel_max              =   9.6121662236367E-02
(PID.TID 0000.0001) %MON advcfl_vvel_max              =   9.5729827890738E-02
(PID.TID 0000.0001) %MON advcfl_wvel_max              =   3.4423269918420E-01
(PID.TID 0000.0001) %MON advcfl_W_hf_max              =   3.4861857854870E-01
(PID.TID 0000.0001) %MON pe_b_mean                    =   7.0067173007401E-03
(PID.TID 0000.0001) %MON ke_max                       =   4.4197820162983E+00
(PID.TID 0000.0001) %MON ke_mean                      =   8.1955192145927E-03
(PID.TID 0000.0001) %MON ke_vol                       =   4.6123795034297E+16
(PID.TID 0000.0001) %MON vort_r_min                   =  -1.6690830560619E-03
(PID.TID 0000.0001) %MON vort_r_max                   =   1.8006987563597E-03
(PID.TID 0000.0001) %MON vort_a_mean                  =   8.2145905496071E-05
(PID.TID 0000.0001) %MON vort_a_sd                    =   1.4048428323438E-05
(PID.TID 0000.0001) %MON vort_p_mean                  =   8.4437936324153E-05
(PID.TID 0000.0001) %MON vort_p_sd                    =   3.4033876522508E-05
(PID.TID 0000.0001) %MON surfExpan_theta_mean         =   9.8848590014705E-04
(PID.TID 0000.0001) %MON surfExpan_salt_mean          =   2.1571328861320E-03
(PID.TID 0000.0001) // =======================================================
(PID.TID 0000.0001) // End MONITOR dynamic field statistics
(PID.TID 0000.0001) // =======================================================
(PID.TID 0000.0001) // =======================================================
(PID.TID 0000.0001) // Begin OBCS MONITOR field statistics
(PID.TID 0000.0001) // =======================================================
(PID.TID 0000.0001) %MON obc_E_uVel_max               =  -4.4193537895926E-01
(PID.TID 0000.0001) %MON obc_E_uVel_min               =  -8.3836014225557E-01
(PID.TID 0000.0001) %MON obc_E_uVel_mean              =  -6.0145490011127E-01
(PID.TID 0000.0001) %MON obc_E_uVel_sd                =   7.3348581738843E-02
(PID.TID 0000.0001) %MON obc_E_uVel_Int               =  -4.1045994502123E+06
(PID.TID 0000.0001) %MON obc_N_vVel_max               =   7.6258323830366E-01
(PID.TID 0000.0001) %MON obc_N_vVel_min               =  -2.4928258077078E-01
(PID.TID 0000.0001) %MON obc_N_vVel_mean              =  -2.8634142919826E-03
(PID.TID 0000.0001) %MON obc_N_vVel_sd                =   3.7871078082281E-02
(PID.TID 0000.0001) %MON obc_N_vVel_Int               =  -4.0859904587415E+07
(PID.TID 0000.0001) %MON obc_S_vVel_max               =   1.2746966581667E+00
(PID.TID 0000.0001) %MON obc_S_vVel_min               =  -1.5361853865123E-01
(PID.TID 0000.0001) %MON obc_S_vVel_mean              =   2.0690794384546E-02
(PID.TID 0000.0001) %MON obc_S_vVel_sd                =   2.9077003869732E-02
(PID.TID 0000.0001) %MON obc_S_vVel_Int               =   6.2916234502706E+08
(PID.TID 0000.0001) %MON obc_E_theta_max              =   1.5981519699097E+01
(PID.TID 0000.0001) %MON obc_E_theta_min              =   1.3104037284851E+01
(PID.TID 0000.0001) %MON obc_E_theta_mean             =   1.4974089986960E+01
(PID.TID 0000.0001) %MON obc_E_theta_sd               =   6.0075505804650E-01
(PID.TID 0000.0001) %MON obc_N_theta_max              =   1.5721092224121E+01
(PID.TID 0000.0001) %MON obc_N_theta_min              =   9.7373789548874E-01
(PID.TID 0000.0001) %MON obc_N_theta_mean             =   5.3443110148828E+00
(PID.TID 0000.0001) %MON obc_N_theta_sd               =   3.5834807335781E+00
(PID.TID 0000.0001) %MON obc_S_theta_max              =   2.4979528427124E+01
(PID.TID 0000.0001) %MON obc_S_theta_min              =   1.5124862194061E+00
(PID.TID 0000.0001) %MON obc_S_theta_mean             =   5.4273114502690E+00
(PID.TID 0000.0001) %MON obc_S_theta_sd               =   5.1694562801555E+00
(PID.TID 0000.0001) %MON obc_E_salt_max               =   3.8703720092773E+01
(PID.TID 0000.0001) %MON obc_E_salt_min               =   3.6289142608643E+01
(PID.TID 0000.0001) %MON obc_E_salt_mean              =   3.6643778075730E+01
(PID.TID 0000.0001) %MON obc_E_salt_sd                =   5.5037722650442E-01
(PID.TID 0000.0001) %MON obc_N_salt_max               =   3.6066974639893E+01
(PID.TID 0000.0001) %MON obc_N_salt_min               =   3.2878395080566E+01
(PID.TID 0000.0001) %MON obc_N_salt_mean              =   3.5117165924185E+01
(PID.TID 0000.0001) %MON obc_N_salt_sd                =   3.1541903364831E-01
(PID.TID 0000.0001) %MON obc_S_salt_max               =   3.7600940704346E+01
(PID.TID 0000.0001) %MON obc_S_salt_min               =   3.4853485107422E+01
(PID.TID 0000.0001) %MON obc_S_salt_mean              =   3.5185630803177E+01
(PID.TID 0000.0001) %MON obc_S_salt_sd                =   4.9502018312198E-01
(PID.TID 0000.0001) // =======================================================
(PID.TID 0000.0001) // End OBCS MONITOR field statistics
(PID.TID 0000.0001) // =======================================================
(PID.TID 0000.0001) // =======================================================
(PID.TID 0000.0001) // Begin MONITOR ptracer field statistics
(PID.TID 0000.0001) // =======================================================
(PID.TID 0000.0001) %MON trcstat_ptracer01_max        =   0.0000000000000E+00
(PID.TID 0000.0001) %MON trcstat_ptracer01_min        =   0.0000000000000E+00
(PID.TID 0000.0001) %MON trcstat_ptracer01_mean       =   0.0000000000000E+00
(PID.TID 0000.0001) %MON trcstat_ptracer01_sd         =   0.0000000000000E+00
(PID.TID 0000.0001) %MON trcstat_ptracer01_del2       =   0.0000000000000E+00
(PID.TID 0000.0001) %MON trcstat_ptracer02_max        =   0.0000000000000E+00
(PID.TID 0000.0001) %MON trcstat_ptracer02_min        =   0.0000000000000E+00
(PID.TID 0000.0001) %MON trcstat_ptracer02_mean       =   0.0000000000000E+00
(PID.TID 0000.0001) %MON trcstat_ptracer02_sd         =   0.0000000000000E+00
(PID.TID 0000.0001) %MON trcstat_ptracer02_del2       =   0.0000000000000E+00
(PID.TID 0000.0001) // =======================================================
(PID.TID 0000.0001) // End MONITOR ptracer field statistics
(PID.TID 0000.0001) // =======================================================
(PID.TID 0000.0001) // =======================================================
(PID.TID 0000.0001) // Begin MONITOR EXF statistics
(PID.TID 0000.0001) // =======================================================
(PID.TID 0000.0001) %MON exf_tsnumber                 =              15812820
(PID.TID 0000.0001) %MON exf_time_sec                 =   1.2650256000000E+09
(PID.TID 0000.0001) %MON exf_ustress_max              =   1.0819548909241E+00
(PID.TID 0000.0001) %MON exf_ustress_min              =  -1.2633651776683E-01
(PID.TID 0000.0001) %MON exf_ustress_mean             =   1.6078627139668E-01
(PID.TID 0000.0001) %MON exf_ustress_sd               =   1.7508440568105E-01
(PID.TID 0000.0001) %MON exf_ustress_del2             =   1.1417732467845E-06
(PID.TID 0000.0001) %MON exf_vstress_max              =   1.0227891176909E+00
(PID.TID 0000.0001) %MON exf_vstress_min              =  -7.6547890590267E-01
(PID.TID 0000.0001) %MON exf_vstress_mean             =  -4.8157302706317E-02
(PID.TID 0000.0001) %MON exf_vstress_sd               =   2.1627871890774E-01
(PID.TID 0000.0001) %MON exf_vstress_del2             =   1.0810933693298E-06
(PID.TID 0000.0001) %MON exf_hflux_max                =   1.5302055401462E+03
(PID.TID 0000.0001) %MON exf_hflux_min                =  -5.0011172901636E+02
(PID.TID 0000.0001) %MON exf_hflux_mean               =   1.2757507941512E+02
(PID.TID 0000.0001) %MON exf_hflux_sd                 =   3.3548985415046E+02
(PID.TID 0000.0001) %MON exf_hflux_del2               =   1.1085004172229E-01
(PID.TID 0000.0001) %MON exf_sflux_max                =   3.8812394500766E-07
(PID.TID 0000.0001) %MON exf_sflux_min                =  -1.5348140930262E-06
(PID.TID 0000.0001) %MON exf_sflux_mean               =   3.4864595860317E-08
(PID.TID 0000.0001) %MON exf_sflux_sd                 =   1.7997142651228E-07
(PID.TID 0000.0001) %MON exf_sflux_del2               =   5.6318512173396E-11
(PID.TID 0000.0001) %MON exf_uwind_max                =   2.1595561358474E+01
(PID.TID 0000.0001) %MON exf_uwind_min                =  -8.6022442119926E+00
(PID.TID 0000.0001) %MON exf_uwind_mean               =   6.4262997979845E+00
(PID.TID 0000.0001) %MON exf_uwind_sd                 =   5.4045988493708E+00
(PID.TID 0000.0001) %MON exf_uwind_del2               =   2.5963848459441E-03
(PID.TID 0000.0001) %MON exf_vwind_max                =   2.0824569836648E+01
(PID.TID 0000.0001) %MON exf_vwind_min                =  -1.8519786390207E+01
(PID.TID 0000.0001) %MON exf_vwind_mean               =  -1.8200057784968E+00
(PID.TID 0000.0001) %MON exf_vwind_sd                 =   8.2956240456335E+00
(PID.TID 0000.0001) %MON exf_vwind_del2               =   2.6189333669647E-03
(PID.TID 0000.0001) %MON exf_wspeed_max               =   2.1749832535162E+01
(PID.TID 0000.0001) %MON exf_wspeed_min               =   1.1858725817272E-02
(PID.TID 0000.0001) %MON exf_wspeed_mean              =   1.1118809481199E+01
(PID.TID 0000.0001) %MON exf_wspeed_sd                =   4.3599189071874E+00
(PID.TID 0000.0001) %MON exf_wspeed_del2              =   3.6876131952531E-03
(PID.TID 0000.0001) %MON exf_atemp_max                =   2.9642906020533E+02
(PID.TID 0000.0001) %MON exf_atemp_min                =   2.6506037400246E+02
(PID.TID 0000.0001) %MON exf_atemp_mean               =   2.8842287495619E+02
(PID.TID 0000.0001) %MON exf_atemp_sd                 =   4.6054500975058E+00
(PID.TID 0000.0001) %MON exf_atemp_del2               =   4.8326789683927E-03
(PID.TID 0000.0001) %MON exf_aqh_max                  =   1.4807203222057E-02
(PID.TID 0000.0001) %MON exf_aqh_min                  =   1.4471869118560E-03
(PID.TID 0000.0001) %MON exf_aqh_mean                 =   8.0203493008556E-03
(PID.TID 0000.0001) %MON exf_aqh_sd                   =   2.6259906425010E-03
(PID.TID 0000.0001) %MON exf_aqh_del2                 =   2.5633129587499E-06
(PID.TID 0000.0001) %MON exf_lwflux_max               =   1.5715261666308E+02
(PID.TID 0000.0001) %MON exf_lwflux_min               =  -1.6447486092106E+01
(PID.TID 0000.0001) %MON exf_lwflux_mean              =   6.6467227737684E+01
(PID.TID 0000.0001) %MON exf_lwflux_sd                =   2.6327759240551E+01
(PID.TID 0000.0001) %MON exf_lwflux_del2              =   2.1988119809967E-02
(PID.TID 0000.0001) %MON exf_evap_max                 =   3.9240439015101E-07
(PID.TID 0000.0001) %MON exf_evap_min                 =  -1.0162297305157E-07
(PID.TID 0000.0001) %MON exf_evap_mean                =   8.6887139191518E-08
(PID.TID 0000.0001) %MON exf_evap_sd                  =   6.3981595899124E-08
(PID.TID 0000.0001) %MON exf_evap_del2                =   3.3217554586830E-11
(PID.TID 0000.0001) %MON exf_precip_max               =   1.5562196985285E-06
(PID.TID 0000.0001) %MON exf_precip_min               =   0.0000000000000E+00
(PID.TID 0000.0001) %MON exf_precip_mean              =   5.0415498696732E-08
(PID.TID 0000.0001) %MON exf_precip_sd                =   1.6028346864471E-07
(PID.TID 0000.0001) %MON exf_precip_del2              =   5.1696015857885E-11
(PID.TID 0000.0001) %MON exf_swflux_max               =  -6.9448941210685E+00
(PID.TID 0000.0001) %MON exf_swflux_min               =  -6.1464365647187E+02
(PID.TID 0000.0001) %MON exf_swflux_mean              =  -2.0437418997125E+02
(PID.TID 0000.0001) %MON exf_swflux_sd                =   1.4068324928345E+02
(PID.TID 0000.0001) %MON exf_swflux_del2              =   7.5494234687063E-02
(PID.TID 0000.0001) %MON exf_swdown_max               =   6.7191555536808E+02
(PID.TID 0000.0001) %MON exf_swdown_min               =   7.5960040514831E+00
(PID.TID 0000.0001) %MON exf_swdown_mean              =   2.2525699737539E+02
(PID.TID 0000.0001) %MON exf_swdown_sd                =   1.5482494711975E+02
(PID.TID 0000.0001) %MON exf_swdown_del2              =   8.3201440546522E-02
(PID.TID 0000.0001) %MON exf_lwdown_max               =   4.1568726566647E+02
(PID.TID 0000.0001) %MON exf_lwdown_min               =   2.1010726242140E+02
(PID.TID 0000.0001) %MON exf_lwdown_mean              =   3.3730281173444E+02
(PID.TID 0000.0001) %MON exf_lwdown_sd                =   3.4456891006147E+01
(PID.TID 0000.0001) %MON exf_lwdown_del2              =   1.0328818665788E-01
(PID.TID 0000.0001) %MON exf_apressure_max            =   1.0272058934638E+05
(PID.TID 0000.0001) %MON exf_apressure_min            =   9.8154983149322E+04
(PID.TID 0000.0001) %MON exf_apressure_mean           =   1.0135051737260E+05
(PID.TID 0000.0001) %MON exf_apressure_sd             =   1.1235954847511E+03
(PID.TID 0000.0001) %MON exf_apressure_del2           =   3.0968734343307E+01
(PID.TID 0000.0001) %MON exf_runoff_max               =   4.6633690723924E-08
(PID.TID 0000.0001) %MON exf_runoff_min               =   0.0000000000000E+00
(PID.TID 0000.0001) %MON exf_runoff_mean              =   1.6070446344693E-09
(PID.TID 0000.0001) %MON exf_runoff_sd                =   5.4409705936606E-09
(PID.TID 0000.0001) %MON exf_runoff_del2              =   1.7602788524736E-12
(PID.TID 0000.0001) // =======================================================
(PID.TID 0000.0001) // End MONITOR EXF statistics
(PID.TID 0000.0001) // =======================================================
 cg2d: Sum(rhs),rhsMax =  -7.43806864708255E+04  2.79903909473620E-02
 cg2d: Sum(rhs),rhsMax =  -7.56230059370500E+04  2.82402385059446E-02
 cg2d: Sum(rhs),rhsMax =  -7.68587400100865E+04  2.84873151786358E-02
 cg2d: Sum(rhs),rhsMax =  -7.80877287507148E+04  2.87318169782386E-02
 cg2d: Sum(rhs),rhsMax =  -7.93098130801755E+04  2.89739111602778E-02
 cg2d: Sum(rhs),rhsMax =  -8.05248348001447E+04  2.92137381943917E-02
 cg2d: Sum(rhs),rhsMax =  -8.17326366125939E+04  2.94514135122271E-02
 cg2d: Sum(rhs),rhsMax =  -8.29330621395301E+04  2.96870291725721E-02
 cg2d: Sum(rhs),rhsMax =  -8.41259559426180E+04  2.99206549092024E-02
 cg2d: Sum(rhs),rhsMax =  -8.53111635426778E+04  3.01523384338998E-02
 cg2d: Sum(rhs),rhsMax =  -8.64885314390670E+04  3.03821055443479E-02
 cg2d: Sum(rhs),rhsMax =  -8.76579071289252E+04  3.06099604190568E-02
 cg2d: Sum(rhs),rhsMax =  -8.88191391263048E+04  3.08358852116500E-02
 cg2d: Sum(rhs),rhsMax =  -8.99720769811564E+04  3.10598394903194E-02
 cg2d: Sum(rhs),rhsMax =  -9.11165712981983E+04  3.12817600747445E-02
 cg2d: Sum(rhs),rhsMax =  -9.22524737556330E+04  3.15015613546485E-02
 cg2d: Sum(rhs),rhsMax =  -9.33796371237508E+04  3.17191357821906E-02
 cg2d: Sum(rhs),rhsMax =  -9.44979152833691E+04  3.19343565713155E-02
 cg2d: Sum(rhs),rhsMax =  -9.56071632441545E+04  3.21470814657856E-02
 cg2d: Sum(rhs),rhsMax =  -9.67072371627883E+04  3.23571564860139E-02
 cg2d: Sum(rhs),rhsMax =  -9.77979943609905E+04  3.25644188640501E-02
 cg2d: Sum(rhs),rhsMax =  -9.88792933434026E+04  3.27687000849629E-02
 cg2d: Sum(rhs),rhsMax =  -9.99509938153181E+04  3.29698289414294E-02
 cg2d: Sum(rhs),rhsMax =  -1.01012956700254E+05  3.31676333211050E-02
 cg2d: Sum(rhs),rhsMax =  -1.02065044157393E+05  3.33619411705362E-02
 cg2d: Sum(rhs),rhsMax =  -1.03107119598850E+05  3.35525820219845E-02
 cg2d: Sum(rhs),rhsMax =  -1.04139047706790E+05  3.37393901485203E-02
 cg2d: Sum(rhs),rhsMax =  -1.05160694450386E+05  3.39222092015187E-02
 cg2d: Sum(rhs),rhsMax =  -1.06171927102630E+05  3.41008961663710E-02
 cg2d: Sum(rhs),rhsMax =  -1.07172614256960E+05  3.42753229007958E-02
 cg2d: Sum(rhs),rhsMax =  -1.08162625843742E+05  3.44453748494445E-02
 cg2d: Sum(rhs),rhsMax =  -1.09141833146577E+05  3.46109484748350E-02
 cg2d: Sum(rhs),rhsMax =  -1.10110108818454E+05  3.47719489816980E-02
 cg2d: Sum(rhs),rhsMax =  -1.11067326897704E+05  3.49282893398861E-02
 cg2d: Sum(rhs),rhsMax =  -1.12013362823831E+05  3.50798895803854E-02
 cg2d: Sum(rhs),rhsMax =  -1.12948093453119E+05  3.52266775474985E-02
 cg2d: Sum(rhs),rhsMax =  -1.13871397074108E+05  3.53685912524568E-02
 cg2d: Sum(rhs),rhsMax =  -1.14783153422865E+05  3.55055820423635E-02
 cg2d: Sum(rhs),rhsMax =  -1.15683243698096E+05  3.56376167091733E-02
 cg2d: Sum(rhs),rhsMax =  -1.16571550576066E+05  3.57646775814564E-02
 cg2d: Sum(rhs),rhsMax =  -1.17447958225354E+05  3.58867588447107E-02
 cg2d: Sum(rhs),rhsMax =  -1.18312352321399E+05  3.60038628794240E-02
 cg2d: Sum(rhs),rhsMax =  -1.19164620060903E+05  3.61160024095928E-02
 cg2d: Sum(rhs),rhsMax =  -1.20004650175998E+05  3.62232034149096E-02
 cg2d: Sum(rhs),rhsMax =  -1.20832332948282E+05  3.63255048797933E-02
(PID.TID 0000.0001)      cg2d_init_res =   9.76987570102015E-01
(PID.TID 0000.0001)      cg2d_iters(min,last) =      -1     153
(PID.TID 0000.0001)      cg2d_last_res =   1.93399284988237E-11
(PID.TID 0000.0001) // =======================================================
(PID.TID 0000.0001) // Begin MONITOR dynamic field statistics
(PID.TID 0000.0001) // =======================================================
(PID.TID 0000.0001) %MON time_tsnumber                =              15812865
(PID.TID 0000.0001) %MON time_secondsf                =   1.2650292000000E+09
(PID.TID 0000.0001) %MON dynstat_eta_max              =   1.5757109286646E+00
(PID.TID 0000.0001) %MON dynstat_eta_min              =  -9.1056717491798E-01
(PID.TID 0000.0001) %MON dynstat_eta_mean             =   4.5665164886850E-01
(PID.TID 0000.0001) %MON dynstat_eta_sd               =   2.6517259862345E-01
(PID.TID 0000.0001) %MON dynstat_eta_del2             =   1.1377241641518E-06
(PID.TID 0000.0001) %MON dynstat_uvel_max             =   2.8142411818463E+00
(PID.TID 0000.0001) %MON dynstat_uvel_min             =  -2.8020709479700E+00
(PID.TID 0000.0001) %MON dynstat_uvel_mean            =   1.4921724709799E-02
(PID.TID 0000.0001) %MON dynstat_uvel_sd              =   9.4104969505438E-02
(PID.TID 0000.0001) %MON dynstat_uvel_del2            =   1.9070821876834E-06
(PID.TID 0000.0001) %MON dynstat_vvel_max             =   2.7341441792511E+00
(PID.TID 0000.0001) %MON dynstat_vvel_min             =  -2.7786013190818E+00
(PID.TID 0000.0001) %MON dynstat_vvel_mean            =   1.2049159341968E-02
(PID.TID 0000.0001) %MON dynstat_vvel_sd              =   8.6195636235705E-02
(PID.TID 0000.0001) %MON dynstat_vvel_del2            =   1.7899546421504E-06
(PID.TID 0000.0001) %MON dynstat_wvel_max             =   3.8076298910129E-02
(PID.TID 0000.0001) %MON dynstat_wvel_min             =  -3.1277122132175E-02
(PID.TID 0000.0001) %MON dynstat_wvel_mean            =   2.3284605886337E-05
(PID.TID 0000.0001) %MON dynstat_wvel_sd              =   1.6720171259746E-03
(PID.TID 0000.0001) %MON dynstat_wvel_del2            =   1.0080945973446E-07
(PID.TID 0000.0001) %MON dynstat_theta_max            =   2.4970496763797E+01
(PID.TID 0000.0001) %MON dynstat_theta_min            =  -2.8153587224397E+00
(PID.TID 0000.0001) %MON dynstat_theta_mean           =   5.5807427427982E+00
(PID.TID 0000.0001) %MON dynstat_theta_sd             =   4.6725086492525E+00
(PID.TID 0000.0001) %MON dynstat_theta_del2           =   7.4866794200218E-06
(PID.TID 0000.0001) %MON dynstat_salt_max             =   8.9641917464269E+01
(PID.TID 0000.0001) %MON dynstat_salt_min             =   2.0158224653640E+00
(PID.TID 0000.0001) %MON dynstat_salt_mean            =   3.5191255169451E+01
(PID.TID 0000.0001) %MON dynstat_salt_sd              =   4.5262872623329E-01
(PID.TID 0000.0001) %MON dynstat_salt_del2            =   1.4796878891167E-06
(PID.TID 0000.0001) %MON dynstat_sst_max              =   2.4960262269390E+01
(PID.TID 0000.0001) %MON dynstat_sst_min              =  -2.8153587224397E+00
(PID.TID 0000.0001) %MON dynstat_sst_mean             =   1.7659725974305E+01
(PID.TID 0000.0001) %MON dynstat_sst_sd               =   3.3913726139709E+00
(PID.TID 0000.0001) %MON dynstat_sst_del2             =   8.8415112573920E-05
(PID.TID 0000.0001) %MON dynstat_sss_max              =   8.9641917464269E+01
(PID.TID 0000.0001) %MON dynstat_sss_min              =   2.0158224653640E+00
(PID.TID 0000.0001) %MON dynstat_sss_mean             =   3.6424741495001E+01
(PID.TID 0000.0001) %MON dynstat_sss_sd               =   4.5463933497224E-01
(PID.TID 0000.0001) %MON dynstat_sss_del2             =   1.6848473415511E-05
(PID.TID 0000.0001) %MON forcing_qnet_max             =   1.4233833480867E+03
(PID.TID 0000.0001) %MON forcing_qnet_min             =  -5.3466335472048E+02
(PID.TID 0000.0001) %MON forcing_qnet_mean            =   5.1629303908515E+01
(PID.TID 0000.0001) %MON forcing_qnet_sd              =   3.2985600568040E+02
(PID.TID 0000.0001) %MON forcing_qnet_del2            =   6.1271184873292E-03
(PID.TID 0000.0001) %MON forcing_qsw_max              =  -2.0552269580680E+01
(PID.TID 0000.0001) %MON forcing_qsw_min              =  -6.3948946927892E+02
(PID.TID 0000.0001) %MON forcing_qsw_mean             =  -2.8293879736853E+02
(PID.TID 0000.0001) %MON forcing_qsw_sd               =   1.4287352433714E+02
(PID.TID 0000.0001) %MON forcing_qsw_del2             =   2.1665691673511E-04
(PID.TID 0000.0001) %MON forcing_empmr_max            =   3.6517579066333E-04
(PID.TID 0000.0001) %MON forcing_empmr_min            =  -1.5922904975232E-03
(PID.TID 0000.0001) %MON forcing_empmr_mean           =   3.9191019608342E-05
(PID.TID 0000.0001) %MON forcing_empmr_sd             =   1.7032137838668E-04
(PID.TID 0000.0001) %MON forcing_empmr_del2           =   1.6054552737613E-09
(PID.TID 0000.0001) %MON forcing_fu_max               =   9.4520903864565E-01
(PID.TID 0000.0001) %MON forcing_fu_min               =  -1.2073691740479E-01
(PID.TID 0000.0001) %MON forcing_fu_mean              =   1.6045690714584E-01
(PID.TID 0000.0001) %MON forcing_fu_sd                =   1.7552563081243E-01
(PID.TID 0000.0001) %MON forcing_fu_del2              =   1.0543394557667E-06
(PID.TID 0000.0001) %MON forcing_fv_max               =   9.2915162653003E-01
(PID.TID 0000.0001) %MON forcing_fv_min               =  -7.8612169762484E-01
(PID.TID 0000.0001) %MON forcing_fv_mean              =  -4.8123822773469E-02
(PID.TID 0000.0001) %MON forcing_fv_sd                =   2.1364044510271E-01
(PID.TID 0000.0001) %MON forcing_fv_del2              =   9.7834541524258E-07
(PID.TID 0000.0001) %MON trAdv_CFL_u_max              =   9.5335919560210E-02
(PID.TID 0000.0001) %MON trAdv_CFL_v_max              =   9.5982639777581E-02
(PID.TID 0000.0001) %MON trAdv_CFL_w_max              =   3.4399213238272E-01
(PID.TID 0000.0001) %MON advcfl_uvel_max              =   9.5335919035043E-02
(PID.TID 0000.0001) %MON advcfl_vvel_max              =   9.5971141847133E-02
(PID.TID 0000.0001) %MON advcfl_wvel_max              =   3.4759243062840E-01
(PID.TID 0000.0001) %MON advcfl_W_hf_max              =   3.5126888902928E-01
(PID.TID 0000.0001) %MON pe_b_mean                    =   1.1446926953965E-02
(PID.TID 0000.0001) %MON ke_max                       =   4.3715218096362E+00
(PID.TID 0000.0001) %MON ke_mean                      =   8.2817315542381E-03
(PID.TID 0000.0001) %MON ke_vol                       =   4.6123795034297E+16
(PID.TID 0000.0001) %MON vort_r_min                   =  -1.5929344395018E-03
(PID.TID 0000.0001) %MON vort_r_max                   =   2.0261049367279E-03
(PID.TID 0000.0001) %MON vort_a_mean                  =   8.2145905369178E-05
(PID.TID 0000.0001) %MON vort_a_sd                    =   1.4091405505489E-05
(PID.TID 0000.0001) %MON vort_p_mean                  =   8.4437936193721E-05
(PID.TID 0000.0001) %MON vort_p_sd                    =   3.4088609130484E-05
(PID.TID 0000.0001) %MON surfExpan_theta_mean         =   6.1865351872887E-04
(PID.TID 0000.0001) %MON surfExpan_salt_mean          =   1.4204444229084E-03
(PID.TID 0000.0001) // =======================================================
(PID.TID 0000.0001) // End MONITOR dynamic field statistics
(PID.TID 0000.0001) // =======================================================
(PID.TID 0000.0001) // =======================================================
(PID.TID 0000.0001) // Begin OBCS MONITOR field statistics
(PID.TID 0000.0001) // =======================================================
(PID.TID 0000.0001) %MON obc_E_uVel_max               =  -3.2013653074688E-01
(PID.TID 0000.0001) %MON obc_E_uVel_min               =  -7.0275950179666E-01
(PID.TID 0000.0001) %MON obc_E_uVel_mean              =  -4.6755945763931E-01
(PID.TID 0000.0001) %MON obc_E_uVel_sd                =   7.1820336480281E-02
(PID.TID 0000.0001) %MON obc_E_uVel_Int               =  -3.1908365738026E+06
(PID.TID 0000.0001) %MON obc_N_vVel_max               =   7.1281018474281E-01
(PID.TID 0000.0001) %MON obc_N_vVel_min               =  -2.4336174931232E-01
(PID.TID 0000.0001) %MON obc_N_vVel_mean              =   3.4844873047526E-03
(PID.TID 0000.0001) %MON obc_N_vVel_sd                =   3.8171160037604E-02
(PID.TID 0000.0001) %MON obc_N_vVel_Int               =   4.9722395814986E+07
(PID.TID 0000.0001) %MON obc_S_vVel_max               =   1.2467811011952E+00
(PID.TID 0000.0001) %MON obc_S_vVel_min               =  -1.5756258486790E-01
(PID.TID 0000.0001) %MON obc_S_vVel_mean              =   1.6151138545945E-02
(PID.TID 0000.0001) %MON obc_S_vVel_sd                =   2.8569406175681E-02
(PID.TID 0000.0001) %MON obc_S_vVel_Int               =   4.9112122103989E+08
(PID.TID 0000.0001) %MON obc_E_theta_max              =   1.5981519699097E+01
(PID.TID 0000.0001) %MON obc_E_theta_min              =   1.3104037284851E+01
(PID.TID 0000.0001) %MON obc_E_theta_mean             =   1.4974089986960E+01
(PID.TID 0000.0001) %MON obc_E_theta_sd               =   6.0075505804650E-01
(PID.TID 0000.0001) %MON obc_N_theta_max              =   1.5721092224121E+01
(PID.TID 0000.0001) %MON obc_N_theta_min              =   9.7373789548874E-01
(PID.TID 0000.0001) %MON obc_N_theta_mean             =   5.3443110148828E+00
(PID.TID 0000.0001) %MON obc_N_theta_sd               =   3.5834807335781E+00
(PID.TID 0000.0001) %MON obc_S_theta_max              =   2.4979528427124E+01
(PID.TID 0000.0001) %MON obc_S_theta_min              =   1.5124862194061E+00
(PID.TID 0000.0001) %MON obc_S_theta_mean             =   5.4273114502690E+00
(PID.TID 0000.0001) %MON obc_S_theta_sd               =   5.1694562801555E+00
(PID.TID 0000.0001) %MON obc_E_salt_max               =   3.8703720092773E+01
(PID.TID 0000.0001) %MON obc_E_salt_min               =   3.6289142608643E+01
(PID.TID 0000.0001) %MON obc_E_salt_mean              =   3.6643778075730E+01
(PID.TID 0000.0001) %MON obc_E_salt_sd                =   5.5037722650442E-01
(PID.TID 0000.0001) %MON obc_N_salt_max               =   3.6066974639893E+01
(PID.TID 0000.0001) %MON obc_N_salt_min               =   3.2878395080566E+01
(PID.TID 0000.0001) %MON obc_N_salt_mean              =   3.5117165924185E+01
(PID.TID 0000.0001) %MON obc_N_salt_sd                =   3.1541903364831E-01
(PID.TID 0000.0001) %MON obc_S_salt_max               =   3.7600940704346E+01
(PID.TID 0000.0001) %MON obc_S_salt_min               =   3.4853485107422E+01
(PID.TID 0000.0001) %MON obc_S_salt_mean              =   3.5185630803177E+01
(PID.TID 0000.0001) %MON obc_S_salt_sd                =   4.9502018312198E-01
(PID.TID 0000.0001) // =======================================================
(PID.TID 0000.0001) // End OBCS MONITOR field statistics
(PID.TID 0000.0001) // =======================================================
(PID.TID 0000.0001) // =======================================================
(PID.TID 0000.0001) // Begin MONITOR ptracer field statistics
(PID.TID 0000.0001) // =======================================================
(PID.TID 0000.0001) %MON trcstat_ptracer01_max        =   0.0000000000000E+00
(PID.TID 0000.0001) %MON trcstat_ptracer01_min        =   0.0000000000000E+00
(PID.TID 0000.0001) %MON trcstat_ptracer01_mean       =   0.0000000000000E+00
(PID.TID 0000.0001) %MON trcstat_ptracer01_sd         =   0.0000000000000E+00
(PID.TID 0000.0001) %MON trcstat_ptracer01_del2       =   0.0000000000000E+00
(PID.TID 0000.0001) %MON trcstat_ptracer02_max        =   0.0000000000000E+00
(PID.TID 0000.0001) %MON trcstat_ptracer02_min        =   0.0000000000000E+00
(PID.TID 0000.0001) %MON trcstat_ptracer02_mean       =   0.0000000000000E+00
(PID.TID 0000.0001) %MON trcstat_ptracer02_sd         =   0.0000000000000E+00
(PID.TID 0000.0001) %MON trcstat_ptracer02_del2       =   0.0000000000000E+00
(PID.TID 0000.0001) // =======================================================
(PID.TID 0000.0001) // End MONITOR ptracer field statistics
(PID.TID 0000.0001) // =======================================================
(PID.TID 0000.0001) // =======================================================
(PID.TID 0000.0001) // Begin MONITOR EXF statistics
(PID.TID 0000.0001) // =======================================================
(PID.TID 0000.0001) %MON exf_tsnumber                 =              15812865
(PID.TID 0000.0001) %MON exf_time_sec                 =   1.2650292000000E+09
(PID.TID 0000.0001) %MON exf_ustress_max              =   9.9331239208680E-01
(PID.TID 0000.0001) %MON exf_ustress_min              =  -1.2080604734517E-01
(PID.TID 0000.0001) %MON exf_ustress_mean             =   1.6051083322399E-01
(PID.TID 0000.0001) %MON exf_ustress_sd               =   1.7589290332751E-01
(PID.TID 0000.0001) %MON exf_ustress_del2             =   1.1556675234329E-06
(PID.TID 0000.0001) %MON exf_vstress_max              =   9.3323900059734E-01
(PID.TID 0000.0001) %MON exf_vstress_min              =  -7.8816103103138E-01
(PID.TID 0000.0001) %MON exf_vstress_mean             =  -4.8085977632406E-02
(PID.TID 0000.0001) %MON exf_vstress_sd               =   2.1377865690529E-01
(PID.TID 0000.0001) %MON exf_vstress_del2             =   1.0871994468585E-06
(PID.TID 0000.0001) %MON exf_hflux_max                =   1.3895219309223E+03
(PID.TID 0000.0001) %MON exf_hflux_min                =  -5.3609698860853E+02
(PID.TID 0000.0001) %MON exf_hflux_mean               =   4.6900311039920E+01
(PID.TID 0000.0001) %MON exf_hflux_sd                 =   3.2482751665045E+02
(PID.TID 0000.0001) %MON exf_hflux_del2               =   1.0122397282860E-01
(PID.TID 0000.0001) %MON exf_sflux_max                =   3.6468633063822E-07
(PID.TID 0000.0001) %MON exf_sflux_min                =  -1.6060898676404E-06
(PID.TID 0000.0001) %MON exf_sflux_mean               =   3.9294584057872E-08
(PID.TID 0000.0001) %MON exf_sflux_sd                 =   1.7010034571894E-07
(PID.TID 0000.0001) %MON exf_sflux_del2               =   5.3636444218385E-11
(PID.TID 0000.0001) %MON exf_uwind_max                =   2.0927918201097E+01
(PID.TID 0000.0001) %MON exf_uwind_min                =  -8.5304371734283E+00
(PID.TID 0000.0001) %MON exf_uwind_mean               =   6.4106996133659E+00
(PID.TID 0000.0001) %MON exf_uwind_sd                 =   5.4589108351090E+00
(PID.TID 0000.0001) %MON exf_uwind_del2               =   2.6048272425670E-03
(PID.TID 0000.0001) %MON exf_vwind_max                =   2.0165572172915E+01
(PID.TID 0000.0001) %MON exf_vwind_min                =  -1.8982484826900E+01
(PID.TID 0000.0001) %MON exf_vwind_mean               =  -1.8536147828280E+00
(PID.TID 0000.0001) %MON exf_vwind_sd                 =   8.2196857539918E+00
(PID.TID 0000.0001) %MON exf_vwind_del2               =   2.5981105218427E-03
(PID.TID 0000.0001) %MON exf_wspeed_max               =   2.0952639110305E+01
(PID.TID 0000.0001) %MON exf_wspeed_min               =   1.0585182158991E-02
(PID.TID 0000.0001) %MON exf_wspeed_mean              =   1.1088888560735E+01
(PID.TID 0000.0001) %MON exf_wspeed_sd                =   4.3511434340393E+00
(PID.TID 0000.0001) %MON exf_wspeed_del2              =   3.6788250102930E-03
(PID.TID 0000.0001) %MON exf_atemp_max                =   2.9657543256930E+02
(PID.TID 0000.0001) %MON exf_atemp_min                =   2.6588997199636E+02
(PID.TID 0000.0001) %MON exf_atemp_mean               =   2.8845216312373E+02
(PID.TID 0000.0001) %MON exf_atemp_sd                 =   4.5327255284321E+00
(PID.TID 0000.0001) %MON exf_atemp_del2               =   4.8344340390842E-03
(PID.TID 0000.0001) %MON exf_aqh_max                  =   1.4830106910968E-02
(PID.TID 0000.0001) %MON exf_aqh_min                  =   1.5404329375575E-03
(PID.TID 0000.0001) %MON exf_aqh_mean                 =   7.9777513867865E-03
(PID.TID 0000.0001) %MON exf_aqh_sd                   =   2.5867993044123E-03
(PID.TID 0000.0001) %MON exf_aqh_del2                 =   2.5466117511269E-06
(PID.TID 0000.0001) %MON exf_lwflux_max               =   1.5296595996806E+02
(PID.TID 0000.0001) %MON exf_lwflux_min               =  -1.0979078699709E+01
(PID.TID 0000.0001) %MON exf_lwflux_mean              =   6.6322328216985E+01
(PID.TID 0000.0001) %MON exf_lwflux_sd                =   2.5169240217704E+01
(PID.TID 0000.0001) %MON exf_lwflux_del2              =   2.1831274695334E-02
(PID.TID 0000.0001) %MON exf_evap_max                 =   3.7184179874639E-07
(PID.TID 0000.0001) %MON exf_evap_min                 =  -9.0031680303743E-08
(PID.TID 0000.0001) %MON exf_evap_mean                =   8.7150775695214E-08
(PID.TID 0000.0001) %MON exf_evap_sd                  =   6.2346406443095E-08
(PID.TID 0000.0001) %MON exf_evap_del2                =   3.3002351239276E-11
(PID.TID 0000.0001) %MON exf_precip_max               =   1.6259014197281E-06
(PID.TID 0000.0001) %MON exf_precip_min               =   0.0000000000000E+00
(PID.TID 0000.0001) %MON exf_precip_mean              =   4.6249147002873E-08
(PID.TID 0000.0001) %MON exf_precip_sd                =   1.4994602146516E-07
(PID.TID 0000.0001) %MON exf_precip_del2              =   4.8265717666052E-11
(PID.TID 0000.0001) %MON exf_swflux_max               =  -2.0752719662814E+01
(PID.TID 0000.0001) %MON exf_swflux_min               =  -6.3956515263905E+02
(PID.TID 0000.0001) %MON exf_swflux_mean              =  -2.8456774982520E+02
(PID.TID 0000.0001) %MON exf_swflux_sd                =   1.4266683749096E+02
(PID.TID 0000.0001) %MON exf_swflux_del2              =   9.6849308075977E-02
(PID.TID 0000.0001) %MON exf_swdown_max               =   6.9896129905408E+02
(PID.TID 0000.0001) %MON exf_swdown_min               =   2.2864281514663E+01
(PID.TID 0000.0001) %MON exf_swdown_mean              =   3.1363168208453E+02
(PID.TID 0000.0001) %MON exf_swdown_sd                =   1.5681511041917E+02
(PID.TID 0000.0001) %MON exf_swdown_del2              =   1.0672552958935E-01
(PID.TID 0000.0001) %MON exf_lwdown_max               =   4.1390136749908E+02
(PID.TID 0000.0001) %MON exf_lwdown_min               =   2.1375331290428E+02
(PID.TID 0000.0001) %MON exf_lwdown_mean              =   3.3748043524864E+02
(PID.TID 0000.0001) %MON exf_lwdown_sd                =   3.3902261702414E+01
(PID.TID 0000.0001) %MON exf_lwdown_del2              =   1.0331225213358E-01
(PID.TID 0000.0001) %MON exf_apressure_max            =   1.0280327732050E+05
(PID.TID 0000.0001) %MON exf_apressure_min            =   9.8134526231867E+04
(PID.TID 0000.0001) %MON exf_apressure_mean           =   1.0138044911697E+05
(PID.TID 0000.0001) %MON exf_apressure_sd             =   1.1416444780872E+03
(PID.TID 0000.0001) %MON exf_apressure_del2           =   3.0978210101582E+01
(PID.TID 0000.0001) %MON exf_runoff_max               =   4.6633690723924E-08
(PID.TID 0000.0001) %MON exf_runoff_min               =   0.0000000000000E+00
(PID.TID 0000.0001) %MON exf_runoff_mean              =   1.6070446344693E-09
(PID.TID 0000.0001) %MON exf_runoff_sd                =   5.4409705936606E-09
(PID.TID 0000.0001) %MON exf_runoff_del2              =   1.7602788524736E-12
(PID.TID 0000.0001) // =======================================================
(PID.TID 0000.0001) // End MONITOR EXF statistics
(PID.TID 0000.0001) // =======================================================
 cg2d: Sum(rhs),rhsMax =  -1.21647560222606E+05  3.64229519257738E-02
 cg2d: Sum(rhs),rhsMax =  -1.22450225420733E+05  3.65155973495749E-02
 cg2d: Sum(rhs),rhsMax =  -1.23240223554747E+05  3.66034847739497E-02
 cg2d: Sum(rhs),rhsMax =  -1.24017451240324E+05  3.66866457889033E-02
 cg2d: Sum(rhs),rhsMax =  -1.24781806709754E+05  3.67650975249540E-02
 cg2d: Sum(rhs),rhsMax =  -1.25533189824819E+05  3.68388405931750E-02
 cg2d: Sum(rhs),rhsMax =  -1.26271502089423E+05  3.69088914437733E-02
 cg2d: Sum(rhs),rhsMax =  -1.26996646662082E+05  3.69743291367925E-02
 cg2d: Sum(rhs),rhsMax =  -1.27708528368142E+05  3.70350749122803E-02
 cg2d: Sum(rhs),rhsMax =  -1.28407053711873E+05  3.70910448588917E-02
 cg2d: Sum(rhs),rhsMax =  -1.29092130888284E+05  3.71428911885723E-02
 cg2d: Sum(rhs),rhsMax =  -1.29763669794812E+05  3.72028879414851E-02
 cg2d: Sum(rhs),rhsMax =  -1.30421582042717E+05  3.72570717676201E-02
 cg2d: Sum(rhs),rhsMax =  -1.31065780968369E+05  3.73051423207488E-02
 cg2d: Sum(rhs),rhsMax =  -1.31696181644226E+05  3.73468068844955E-02
 cg2d: Sum(rhs),rhsMax =  -1.32312700889699E+05  3.73817851305932E-02
 cg2d: Sum(rhs),rhsMax =  -1.32915257281714E+05  3.74098123450866E-02
 cg2d: Sum(rhs),rhsMax =  -1.33503771165153E+05  3.74306409381516E-02
 cg2d: Sum(rhs),rhsMax =  -1.34078164662989E+05  3.74440402897605E-02
 cg2d: Sum(rhs),rhsMax =  -1.34638361686309E+05  3.74497953593509E-02
 cg2d: Sum(rhs),rhsMax =  -1.35184287944009E+05  3.74477045748996E-02
 cg2d: Sum(rhs),rhsMax =  -1.35715870952389E+05  3.74375775897892E-02
 cg2d: Sum(rhs),rhsMax =  -1.36233040044411E+05  3.74192334184452E-02
 cg2d: Sum(rhs),rhsMax =  -1.36735726378866E+05  3.73924993102396E-02
 cg2d: Sum(rhs),rhsMax =  -1.37223862949187E+05  3.73595484373770E-02
 cg2d: Sum(rhs),rhsMax =  -1.37697384592174E+05  3.73192669370597E-02
 cg2d: Sum(rhs),rhsMax =  -1.38156227996374E+05  3.72701514311456E-02
 cg2d: Sum(rhs),rhsMax =  -1.38600331710346E+05  3.72120852684234E-02
 cg2d: Sum(rhs),rhsMax =  -1.39029636150606E+05  3.71449580448039E-02
 cg2d: Sum(rhs),rhsMax =  -1.39444083609445E+05  3.70686681820341E-02
 cg2d: Sum(rhs),rhsMax =  -1.39843618262412E+05  3.69831221690900E-02
 cg2d: Sum(rhs),rhsMax =  -1.40228186175690E+05  3.68882360962484E-02
 cg2d: Sum(rhs),rhsMax =  -1.40597735313122E+05  3.67839379406357E-02
 cg2d: Sum(rhs),rhsMax =  -1.40952215543129E+05  3.66701697627324E-02
 cg2d: Sum(rhs),rhsMax =  -1.41291578645279E+05  3.65468894685431E-02
 cg2d: Sum(rhs),rhsMax =  -1.41615778316744E+05  3.64140719844048E-02
 cg2d: Sum(rhs),rhsMax =  -1.41924770178413E+05  3.62717098978796E-02
 cg2d: Sum(rhs),rhsMax =  -1.42218511780886E+05  3.61198137785082E-02
 cg2d: Sum(rhs),rhsMax =  -1.42496962610113E+05  3.59584123559559E-02
 cg2d: Sum(rhs),rhsMax =  -1.42760084092935E+05  3.57875528429452E-02
 cg2d: Sum(rhs),rhsMax =  -1.43007839602247E+05  3.56073015074235E-02
 cg2d: Sum(rhs),rhsMax =  -1.43240194462070E+05  3.54177444630582E-02
 cg2d: Sum(rhs),rhsMax =  -1.43457115952252E+05  3.52189885575255E-02
 cg2d: Sum(rhs),rhsMax =  -1.43658573313064E+05  3.50111621966424E-02
 cg2d: Sum(rhs),rhsMax =  -1.43844537749427E+05  3.47944159331225E-02
(PID.TID 0000.0001)      cg2d_init_res =   7.53171854577772E-01
(PID.TID 0000.0001)      cg2d_iters(min,last) =      -1     151
(PID.TID 0000.0001)      cg2d_last_res =   2.02637375923215E-11
(PID.TID 0000.0001) // =======================================================
(PID.TID 0000.0001) // Begin MONITOR dynamic field statistics
(PID.TID 0000.0001) // =======================================================
(PID.TID 0000.0001) %MON time_tsnumber                =              15812910
(PID.TID 0000.0001) %MON time_secondsf                =   1.2650328000000E+09
(PID.TID 0000.0001) %MON dynstat_eta_max              =   1.4925749824251E+00
(PID.TID 0000.0001) %MON dynstat_eta_min              =  -9.7168005400052E-01
(PID.TID 0000.0001) %MON dynstat_eta_mean             =   5.4361977246701E-01
(PID.TID 0000.0001) %MON dynstat_eta_sd               =   2.6920198727471E-01
(PID.TID 0000.0001) %MON dynstat_eta_del2             =   1.0955780983041E-06
(PID.TID 0000.0001) %MON dynstat_uvel_max             =   2.8226622914133E+00
(PID.TID 0000.0001) %MON dynstat_uvel_min             =  -2.8040640241894E+00
(PID.TID 0000.0001) %MON dynstat_uvel_mean            =   1.8311261625701E-02
(PID.TID 0000.0001) %MON dynstat_uvel_sd              =   9.4000430326940E-02
(PID.TID 0000.0001) %MON dynstat_uvel_del2            =   1.9293752621347E-06
(PID.TID 0000.0001) %MON dynstat_vvel_max             =   2.7193176212518E+00
(PID.TID 0000.0001) %MON dynstat_vvel_min             =  -2.7830964257881E+00
(PID.TID 0000.0001) %MON dynstat_vvel_mean            =   8.5090955669767E-03
(PID.TID 0000.0001) %MON dynstat_vvel_sd              =   8.6318181858111E-02
(PID.TID 0000.0001) %MON dynstat_vvel_del2            =   1.8110920125929E-06
(PID.TID 0000.0001) %MON dynstat_wvel_max             =   3.4616103752377E-02
(PID.TID 0000.0001) %MON dynstat_wvel_min             =  -3.3472362974128E-02
(PID.TID 0000.0001) %MON dynstat_wvel_mean            =   5.1415243203265E-06
(PID.TID 0000.0001) %MON dynstat_wvel_sd              =   1.6675888600643E-03
(PID.TID 0000.0001) %MON dynstat_wvel_del2            =   1.0120289801303E-07
(PID.TID 0000.0001) %MON dynstat_theta_max            =   2.4971156541561E+01
(PID.TID 0000.0001) %MON dynstat_theta_min            =  -2.7998730248031E+00
(PID.TID 0000.0001) %MON dynstat_theta_mean           =   5.5805548709538E+00
(PID.TID 0000.0001) %MON dynstat_theta_sd             =   4.6723932614897E+00
(PID.TID 0000.0001) %MON dynstat_theta_del2           =   7.4682829859259E-06
(PID.TID 0000.0001) %MON dynstat_salt_max             =   8.9645509938500E+01
(PID.TID 0000.0001) %MON dynstat_salt_min             =   2.0158321464077E+00
(PID.TID 0000.0001) %MON dynstat_salt_mean            =   3.5191234919115E+01
(PID.TID 0000.0001) %MON dynstat_salt_sd              =   4.5260909999355E-01
(PID.TID 0000.0001) %MON dynstat_salt_del2            =   1.4764129810993E-06
(PID.TID 0000.0001) %MON dynstat_sst_max              =   2.4961512343333E+01
(PID.TID 0000.0001) %MON dynstat_sst_min              =  -2.7998730248031E+00
(PID.TID 0000.0001) %MON dynstat_sst_mean             =   1.7666514140083E+01
(PID.TID 0000.0001) %MON dynstat_sst_sd               =   3.3922779601175E+00
(PID.TID 0000.0001) %MON dynstat_sst_del2             =   8.8424470941623E-05
(PID.TID 0000.0001) %MON dynstat_sss_max              =   8.9645509938500E+01
(PID.TID 0000.0001) %MON dynstat_sss_min              =   2.0158321464077E+00
(PID.TID 0000.0001) %MON dynstat_sss_mean             =   3.6425023616785E+01
(PID.TID 0000.0001) %MON dynstat_sss_sd               =   4.5436980017529E-01
(PID.TID 0000.0001) %MON dynstat_sss_del2             =   1.6790214188264E-05
(PID.TID 0000.0001) %MON forcing_qnet_max             =   1.2864356834405E+03
(PID.TID 0000.0001) %MON forcing_qnet_min             =  -5.2576937567763E+02
(PID.TID 0000.0001) %MON forcing_qnet_mean            =  -3.9891094871385E+00
(PID.TID 0000.0001) %MON forcing_qnet_sd              =   3.0353383936991E+02
(PID.TID 0000.0001) %MON forcing_qnet_del2            =   6.1173099829583E-03
(PID.TID 0000.0001) %MON forcing_qsw_max              =  -2.9426996510694E+01
(PID.TID 0000.0001) %MON forcing_qsw_min              =  -6.4804757753165E+02
(PID.TID 0000.0001) %MON forcing_qsw_mean             =  -3.3871042587431E+02
(PID.TID 0000.0001) %MON forcing_qsw_sd               =   1.2799665878744E+02
(PID.TID 0000.0001) %MON forcing_qsw_del2             =   2.3823520559405E-04
(PID.TID 0000.0001) %MON forcing_empmr_max            =   3.3302973975268E-04
(PID.TID 0000.0001) %MON forcing_empmr_min            =  -1.6464854659451E-03
(PID.TID 0000.0001) %MON forcing_empmr_mean           =   4.2871852944147E-05
(PID.TID 0000.0001) %MON forcing_empmr_sd             =   1.6037897063122E-04
(PID.TID 0000.0001) %MON forcing_empmr_del2           =   1.6187334909696E-09
(PID.TID 0000.0001) %MON forcing_fu_max               =   9.2664199920830E-01
(PID.TID 0000.0001) %MON forcing_fu_min               =  -1.2239720548865E-01
(PID.TID 0000.0001) %MON forcing_fu_mean              =   1.6084560695726E-01
(PID.TID 0000.0001) %MON forcing_fu_sd                =   1.7715581995011E-01
(PID.TID 0000.0001) %MON forcing_fu_del2              =   1.0712814231419E-06
(PID.TID 0000.0001) %MON forcing_fv_max               =   8.6724534346082E-01
(PID.TID 0000.0001) %MON forcing_fv_min               =  -7.9646785336752E-01
(PID.TID 0000.0001) %MON forcing_fv_mean              =  -4.9987877248200E-02
(PID.TID 0000.0001) %MON forcing_fv_sd                =   2.1077881557973E-01
(PID.TID 0000.0001) %MON forcing_fv_del2              =   9.8578146018583E-07
(PID.TID 0000.0001) %MON trAdv_CFL_u_max              =   9.5551412437370E-02
(PID.TID 0000.0001) %MON trAdv_CFL_v_max              =   9.6137880113351E-02
(PID.TID 0000.0001) %MON trAdv_CFL_w_max              =   3.7725067959028E-01
(PID.TID 0000.0001) %MON advcfl_uvel_max              =   9.5551411910982E-02
(PID.TID 0000.0001) %MON advcfl_vvel_max              =   9.6126400005390E-02
(PID.TID 0000.0001) %MON advcfl_wvel_max              =   3.8017510346307E-01
(PID.TID 0000.0001) %MON advcfl_W_hf_max              =   3.8314522145888E-01
(PID.TID 0000.0001) %MON pe_b_mean                    =   1.3631748473961E-02
(PID.TID 0000.0001) %MON ke_max                       =   4.3944333370779E+00
(PID.TID 0000.0001) %MON ke_mean                      =   8.3023503959378E-03
(PID.TID 0000.0001) %MON ke_vol                       =   4.6123795034297E+16
(PID.TID 0000.0001) %MON vort_r_min                   =  -1.6433679184974E-03
(PID.TID 0000.0001) %MON vort_r_max                   =   1.8861688444956E-03
(PID.TID 0000.0001) %MON vort_a_mean                  =   8.2145903873150E-05
(PID.TID 0000.0001) %MON vort_a_sd                    =   1.4105256858916E-05
(PID.TID 0000.0001) %MON vort_p_mean                  =   8.4437934655951E-05
(PID.TID 0000.0001) %MON vort_p_sd                    =   3.4096216501684E-05
(PID.TID 0000.0001) %MON surfExpan_theta_mean         =   8.9645039121988E-05
(PID.TID 0000.0001) %MON surfExpan_salt_mean          =   3.1601870897583E-04
(PID.TID 0000.0001) // =======================================================
(PID.TID 0000.0001) // End MONITOR dynamic field statistics
(PID.TID 0000.0001) // =======================================================
(PID.TID 0000.0001) // =======================================================
(PID.TID 0000.0001) // Begin OBCS MONITOR field statistics
(PID.TID 0000.0001) // =======================================================
(PID.TID 0000.0001) %MON obc_E_uVel_max               =  -1.1032628858367E-01
(PID.TID 0000.0001) %MON obc_E_uVel_min               =  -4.5958532025509E-01
(PID.TID 0000.0001) %MON obc_E_uVel_mean              =  -2.2922225344526E-01
(PID.TID 0000.0001) %MON obc_E_uVel_sd                =   6.9076511185011E-02
(PID.TID 0000.0001) %MON obc_E_uVel_Int               =  -1.5643160198608E+06
(PID.TID 0000.0001) %MON obc_N_vVel_max               =   6.8349208661762E-01
(PID.TID 0000.0001) %MON obc_N_vVel_min               =  -2.4542833835348E-01
(PID.TID 0000.0001) %MON obc_N_vVel_mean              =   8.3114847611834E-03
(PID.TID 0000.0001) %MON obc_N_vVel_sd                =   3.9036158180366E-02
(PID.TID 0000.0001) %MON obc_N_vVel_Int               =   1.1860193450615E+08
(PID.TID 0000.0001) %MON obc_S_vVel_max               =   1.2237952008211E+00
(PID.TID 0000.0001) %MON obc_S_vVel_min               =  -1.6179518582075E-01
(PID.TID 0000.0001) %MON obc_S_vVel_mean              =   7.1339625274218E-03
(PID.TID 0000.0001) %MON obc_S_vVel_sd                =   2.7501513828446E-02
(PID.TID 0000.0001) %MON obc_S_vVel_Int               =   2.1692838417264E+08
(PID.TID 0000.0001) %MON obc_E_theta_max              =   1.5981519699097E+01
(PID.TID 0000.0001) %MON obc_E_theta_min              =   1.3104037284851E+01
(PID.TID 0000.0001) %MON obc_E_theta_mean             =   1.4974089986960E+01
(PID.TID 0000.0001) %MON obc_E_theta_sd               =   6.0075505804650E-01
(PID.TID 0000.0001) %MON obc_N_theta_max              =   1.5721092224121E+01
(PID.TID 0000.0001) %MON obc_N_theta_min              =   9.7373789548874E-01
(PID.TID 0000.0001) %MON obc_N_theta_mean             =   5.3443110148828E+00
(PID.TID 0000.0001) %MON obc_N_theta_sd               =   3.5834807335781E+00
(PID.TID 0000.0001) %MON obc_S_theta_max              =   2.4979528427124E+01
(PID.TID 0000.0001) %MON obc_S_theta_min              =   1.5124862194061E+00
(PID.TID 0000.0001) %MON obc_S_theta_mean             =   5.4273114502690E+00
(PID.TID 0000.0001) %MON obc_S_theta_sd               =   5.1694562801555E+00
(PID.TID 0000.0001) %MON obc_E_salt_max               =   3.8703720092773E+01
(PID.TID 0000.0001) %MON obc_E_salt_min               =   3.6289142608643E+01
(PID.TID 0000.0001) %MON obc_E_salt_mean              =   3.6643778075730E+01
(PID.TID 0000.0001) %MON obc_E_salt_sd                =   5.5037722650442E-01
(PID.TID 0000.0001) %MON obc_N_salt_max               =   3.6066974639893E+01
(PID.TID 0000.0001) %MON obc_N_salt_min               =   3.2878395080566E+01
(PID.TID 0000.0001) %MON obc_N_salt_mean              =   3.5117165924185E+01
(PID.TID 0000.0001) %MON obc_N_salt_sd                =   3.1541903364831E-01
(PID.TID 0000.0001) %MON obc_S_salt_max               =   3.7600940704346E+01
(PID.TID 0000.0001) %MON obc_S_salt_min               =   3.4853485107422E+01
(PID.TID 0000.0001) %MON obc_S_salt_mean              =   3.5185630803177E+01
(PID.TID 0000.0001) %MON obc_S_salt_sd                =   4.9502018312198E-01
(PID.TID 0000.0001) // =======================================================
(PID.TID 0000.0001) // End OBCS MONITOR field statistics
(PID.TID 0000.0001) // =======================================================
(PID.TID 0000.0001) // =======================================================
(PID.TID 0000.0001) // Begin MONITOR ptracer field statistics
(PID.TID 0000.0001) // =======================================================
(PID.TID 0000.0001) %MON trcstat_ptracer01_max        =   0.0000000000000E+00
(PID.TID 0000.0001) %MON trcstat_ptracer01_min        =   0.0000000000000E+00
(PID.TID 0000.0001) %MON trcstat_ptracer01_mean       =   0.0000000000000E+00
(PID.TID 0000.0001) %MON trcstat_ptracer01_sd         =   0.0000000000000E+00
(PID.TID 0000.0001) %MON trcstat_ptracer01_del2       =   0.0000000000000E+00
(PID.TID 0000.0001) %MON trcstat_ptracer02_max        =   0.0000000000000E+00
(PID.TID 0000.0001) %MON trcstat_ptracer02_min        =   0.0000000000000E+00
(PID.TID 0000.0001) %MON trcstat_ptracer02_mean       =   0.0000000000000E+00
(PID.TID 0000.0001) %MON trcstat_ptracer02_sd         =   0.0000000000000E+00
(PID.TID 0000.0001) %MON trcstat_ptracer02_del2       =   0.0000000000000E+00
(PID.TID 0000.0001) // =======================================================
(PID.TID 0000.0001) // End MONITOR ptracer field statistics
(PID.TID 0000.0001) // =======================================================
(PID.TID 0000.0001) // =======================================================
(PID.TID 0000.0001) // Begin MONITOR EXF statistics
(PID.TID 0000.0001) // =======================================================
(PID.TID 0000.0001) %MON exf_tsnumber                 =              15812910
(PID.TID 0000.0001) %MON exf_time_sec                 =   1.2650328000000E+09
(PID.TID 0000.0001) %MON exf_ustress_max              =   9.2991502511651E-01
(PID.TID 0000.0001) %MON exf_ustress_min              =  -1.2495544545797E-01
(PID.TID 0000.0001) %MON exf_ustress_mean             =   1.6089649324942E-01
(PID.TID 0000.0001) %MON exf_ustress_sd               =   1.7744288442868E-01
(PID.TID 0000.0001) %MON exf_ustress_del2             =   1.1740701861015E-06
(PID.TID 0000.0001) %MON exf_vstress_max              =   8.6889655556921E-01
(PID.TID 0000.0001) %MON exf_vstress_min              =  -7.9914623684689E-01
(PID.TID 0000.0001) %MON exf_vstress_mean             =  -4.9994669561022E-02
(PID.TID 0000.0001) %MON exf_vstress_sd               =   2.1086666593501E-01
(PID.TID 0000.0001) %MON exf_vstress_del2             =   1.0951880753915E-06
(PID.TID 0000.0001) %MON exf_hflux_max                =   1.2547343447104E+03
(PID.TID 0000.0001) %MON exf_hflux_min                =  -5.2738302761630E+02
(PID.TID 0000.0001) %MON exf_hflux_mean               =  -8.1172911065650E+00
(PID.TID 0000.0001) %MON exf_hflux_sd                 =   2.9867672150527E+02
(PID.TID 0000.0001) %MON exf_hflux_del2               =   9.2050888391385E-02
(PID.TID 0000.0001) %MON exf_sflux_max                =   3.3232485099207E-07
(PID.TID 0000.0001) %MON exf_sflux_min                =  -1.6482408739383E-06
(PID.TID 0000.0001) %MON exf_sflux_mean               =   4.2962435549626E-08
(PID.TID 0000.0001) %MON exf_sflux_sd                 =   1.6009010675300E-07
(PID.TID 0000.0001) %MON exf_sflux_del2               =   5.0908476629596E-11
(PID.TID 0000.0001) %MON exf_uwind_max                =   1.9815043103871E+01
(PID.TID 0000.0001) %MON exf_uwind_min                =  -8.3096967532305E+00
(PID.TID 0000.0001) %MON exf_uwind_mean               =   6.4101481698956E+00
(PID.TID 0000.0001) %MON exf_uwind_sd                 =   5.5127784429101E+00
(PID.TID 0000.0001) %MON exf_uwind_del2               =   2.6160643967089E-03
(PID.TID 0000.0001) %MON exf_vwind_max                =   1.9621578629018E+01
(PID.TID 0000.0001) %MON exf_vwind_min                =  -1.8829472962952E+01
(PID.TID 0000.0001) %MON exf_vwind_mean               =  -1.9217294412756E+00
(PID.TID 0000.0001) %MON exf_vwind_sd                 =   8.1194925669972E+00
(PID.TID 0000.0001) %MON exf_vwind_del2               =   2.5722583234348E-03
(PID.TID 0000.0001) %MON exf_wspeed_max               =   2.0687677361189E+01
(PID.TID 0000.0001) %MON exf_wspeed_min               =   6.1294828613871E-03
(PID.TID 0000.0001) %MON exf_wspeed_mean              =   1.1053693998157E+01
(PID.TID 0000.0001) %MON exf_wspeed_sd                =   4.3492273229547E+00
(PID.TID 0000.0001) %MON exf_wspeed_del2              =   3.6686155473143E-03
(PID.TID 0000.0001) %MON exf_atemp_max                =   2.9664234890444E+02
(PID.TID 0000.0001) %MON exf_atemp_min                =   2.6691977288256E+02
(PID.TID 0000.0001) %MON exf_atemp_mean               =   2.8847870969218E+02
(PID.TID 0000.0001) %MON exf_atemp_sd                 =   4.4606133747749E+00
(PID.TID 0000.0001) %MON exf_atemp_del2               =   4.8356170847865E-03
(PID.TID 0000.0001) %MON exf_aqh_max                  =   1.4882908290931E-02
(PID.TID 0000.0001) %MON exf_aqh_min                  =   1.6916530304623E-03
(PID.TID 0000.0001) %MON exf_aqh_mean                 =   7.9418237312525E-03
(PID.TID 0000.0001) %MON exf_aqh_sd                   =   2.5444619428746E-03
(PID.TID 0000.0001) %MON exf_aqh_del2                 =   2.5316151028002E-06
(PID.TID 0000.0001) %MON exf_lwflux_max               =   1.5120945941434E+02
(PID.TID 0000.0001) %MON exf_lwflux_min               =  -9.0226384485849E+00
(PID.TID 0000.0001) %MON exf_lwflux_mean              =   6.6196755833803E+01
(PID.TID 0000.0001) %MON exf_lwflux_sd                =   2.3883334913443E+01
(PID.TID 0000.0001) %MON exf_lwflux_del2              =   2.1658320530184E-02
(PID.TID 0000.0001) %MON exf_evap_max                 =   3.4221898246144E-07
(PID.TID 0000.0001) %MON exf_evap_min                 =  -8.8746892371316E-08
(PID.TID 0000.0001) %MON exf_evap_mean                =   8.7480285282846E-08
(PID.TID 0000.0001) %MON exf_evap_sd                  =   6.0754601660215E-08
(PID.TID 0000.0001) %MON exf_evap_del2                =   3.2819661551147E-11
(PID.TID 0000.0001) %MON exf_precip_max               =   1.6783163363750E-06
(PID.TID 0000.0001) %MON exf_precip_min               =   0.0000000000000E+00
(PID.TID 0000.0001) %MON exf_precip_mean              =   4.2910805098750E-08
(PID.TID 0000.0001) %MON exf_precip_sd                =   1.3984437065508E-07
(PID.TID 0000.0001) %MON exf_precip_del2              =   4.4956569544199E-11
(PID.TID 0000.0001) %MON exf_swflux_max               =  -2.9234281246894E+01
(PID.TID 0000.0001) %MON exf_swflux_min               =  -6.4880242953913E+02
(PID.TID 0000.0001) %MON exf_swflux_mean              =  -3.3952396415696E+02
(PID.TID 0000.0001) %MON exf_swflux_sd                =   1.2758481482457E+02
(PID.TID 0000.0001) %MON exf_swflux_del2              =   1.1032937336740E-01
(PID.TID 0000.0001) %MON exf_swdown_max               =   7.0942738284494E+02
(PID.TID 0000.0001) %MON exf_swdown_min               =   3.2260748323749E+01
(PID.TID 0000.0001) %MON exf_swdown_mean              =   3.7418141196916E+02
(PID.TID 0000.0001) %MON exf_swdown_sd                =   1.3996850215955E+02
(PID.TID 0000.0001) %MON exf_swdown_del2              =   1.2157070054150E-01
(PID.TID 0000.0001) %MON exf_lwdown_max               =   4.1346344258196E+02
(PID.TID 0000.0001) %MON exf_lwdown_min               =   2.1558559797189E+02
(PID.TID 0000.0001) %MON exf_lwdown_mean              =   3.3764794683501E+02
(PID.TID 0000.0001) %MON exf_lwdown_sd                =   3.3255439635617E+01
(PID.TID 0000.0001) %MON exf_lwdown_del2              =   1.0333729594338E-01
(PID.TID 0000.0001) %MON exf_apressure_max            =   1.0289102466631E+05
(PID.TID 0000.0001) %MON exf_apressure_min            =   9.8100159343727E+04
(PID.TID 0000.0001) %MON exf_apressure_mean           =   1.0138276379000E+05
(PID.TID 0000.0001) %MON exf_apressure_sd             =   1.1547588819843E+03
(PID.TID 0000.0001) %MON exf_apressure_del2           =   3.0979067493669E+01
(PID.TID 0000.0001) %MON exf_runoff_max               =   4.6633690723924E-08
(PID.TID 0000.0001) %MON exf_runoff_min               =   0.0000000000000E+00
(PID.TID 0000.0001) %MON exf_runoff_mean              =   1.6070446344693E-09
(PID.TID 0000.0001) %MON exf_runoff_sd                =   5.4409705936606E-09
(PID.TID 0000.0001) %MON exf_runoff_del2              =   1.7602788524736E-12
(PID.TID 0000.0001) // =======================================================
(PID.TID 0000.0001) // End MONITOR EXF statistics
(PID.TID 0000.0001) // =======================================================
 cg2d: Sum(rhs),rhsMax =  -1.44014982435028E+05  3.45689226754576E-02
 cg2d: Sum(rhs),rhsMax =  -1.44169882516082E+05  3.43348919512428E-02
 cg2d: Sum(rhs),rhsMax =  -1.44309215114974E+05  3.40925536121838E-02
 cg2d: Sum(rhs),rhsMax =  -1.44432959333532E+05  3.38421564520555E-02
 cg2d: Sum(rhs),rhsMax =  -1.44541096256194E+05  3.35839665090316E-02
 cg2d: Sum(rhs),rhsMax =  -1.44633608952805E+05  3.33182647568642E-02
 cg2d: Sum(rhs),rhsMax =  -1.44710482481302E+05  3.30453449896588E-02
 cg2d: Sum(rhs),rhsMax =  -1.44771703890025E+05  3.27655116742667E-02
 cg2d: Sum(rhs),rhsMax =  -1.44817262219926E+05  3.24790774788834E-02
 cg2d: Sum(rhs),rhsMax =  -1.44847148506397E+05  3.21863601102019E-02
 cg2d: Sum(rhs),rhsMax =  -1.44861355780986E+05  3.18876780999517E-02
 cg2d: Sum(rhs),rhsMax =  -1.44859879072744E+05  3.15833453160890E-02
 cg2d: Sum(rhs),rhsMax =  -1.44842715409460E+05  3.12736641882187E-02
 cg2d: Sum(rhs),rhsMax =  -1.44809863818519E+05  3.09589178354939E-02
 cg2d: Sum(rhs),rhsMax =  -1.44761325327649E+05  3.06393615050815E-02
 cg2d: Sum(rhs),rhsMax =  -1.44697102965297E+05  3.03152139174111E-02
 cg2d: Sum(rhs),rhsMax =  -1.44617201760868E+05  2.99866492172403E-02
 cg2d: Sum(rhs),rhsMax =  -1.44521628744644E+05  2.96537902830829E-02
 cg2d: Sum(rhs),rhsMax =  -1.44410392947511E+05  2.93167040958867E-02
 cg2d: Sum(rhs),rhsMax =  -1.44283505400387E+05  2.89753997322536E-02
 cg2d: Sum(rhs),rhsMax =  -1.44140979133483E+05  2.86298293224925E-02
 cg2d: Sum(rhs),rhsMax =  -1.43982829175220E+05  2.82798924796011E-02
 cg2d: Sum(rhs),rhsMax =  -1.43809072550998E+05  2.79254426159463E-02
 cg2d: Sum(rhs),rhsMax =  -1.43619728281639E+05  2.75662960688523E-02
 cg2d: Sum(rhs),rhsMax =  -1.43414817381654E+05  2.72022420552025E-02
 cg2d: Sum(rhs),rhsMax =  -1.43194362857198E+05  2.68330536458711E-02
 cg2d: Sum(rhs),rhsMax =  -1.42958389703846E+05  2.64584994153522E-02
 cg2d: Sum(rhs),rhsMax =  -1.42706924904065E+05  2.60783539497034E-02
 cg2d: Sum(rhs),rhsMax =  -1.42439997424481E+05  2.56924068304858E-02
 cg2d: Sum(rhs),rhsMax =  -1.42157638212882E+05  2.53004696603616E-02
 cg2d: Sum(rhs),rhsMax =  -1.41859880194981E+05  2.49023808637139E-02
 cg2d: Sum(rhs),rhsMax =  -1.41546758270935E+05  2.44980082520868E-02
 cg2d: Sum(rhs),rhsMax =  -1.41218309311622E+05  2.40872495407679E-02
 cg2d: Sum(rhs),rhsMax =  -1.40874572154659E+05  2.36700311102114E-02
 cg2d: Sum(rhs),rhsMax =  -1.40515587600195E+05  2.32463053688054E-02
 cg2d: Sum(rhs),rhsMax =  -1.40141398406451E+05  2.28160471106127E-02
 cg2d: Sum(rhs),rhsMax =  -1.39752049285009E+05  2.23792492269578E-02
 cg2d: Sum(rhs),rhsMax =  -1.39347586895873E+05  2.19359181473451E-02
 cg2d: Sum(rhs),rhsMax =  -1.38928059842278E+05  2.14860693693890E-02
 cg2d: Sum(rhs),rhsMax =  -1.38493518665252E+05  2.10297233968494E-02
 cg2d: Sum(rhs),rhsMax =  -1.38044015837937E+05  2.05669023284227E-02
 cg2d: Sum(rhs),rhsMax =  -1.37579605759686E+05  2.00976272584859E-02
 cg2d: Sum(rhs),rhsMax =  -1.37100344749886E+05  1.96219165877214E-02
 cg2d: Sum(rhs),rhsMax =  -1.36606291041567E+05  1.91397852504919E-02
 cg2d: Sum(rhs),rhsMax =  -1.36097504774759E+05  1.86512448096658E-02
(PID.TID 0000.0001)      cg2d_init_res =   6.56237779976888E-01
(PID.TID 0000.0001)      cg2d_iters(min,last) =      -1     150
(PID.TID 0000.0001)      cg2d_last_res =   1.93468106593811E-11
(PID.TID 0000.0001) // =======================================================
(PID.TID 0000.0001) // Begin MONITOR dynamic field statistics
(PID.TID 0000.0001) // =======================================================
(PID.TID 0000.0001) %MON time_tsnumber                =              15812955
(PID.TID 0000.0001) %MON time_secondsf                =   1.2650364000000E+09
(PID.TID 0000.0001) %MON dynstat_eta_max              =   1.4839586720501E+00
(PID.TID 0000.0001) %MON dynstat_eta_min              =  -1.0842502450248E+00
(PID.TID 0000.0001) %MON dynstat_eta_mean             =   5.1434205105419E-01
(PID.TID 0000.0001) %MON dynstat_eta_sd               =   3.4549745107843E-01
(PID.TID 0000.0001) %MON dynstat_eta_del2             =   1.0594046553899E-06
(PID.TID 0000.0001) %MON dynstat_uvel_max             =   2.8651156318726E+00
(PID.TID 0000.0001) %MON dynstat_uvel_min             =  -2.7958632631464E+00
(PID.TID 0000.0001) %MON dynstat_uvel_mean            =   1.7421581075186E-02
(PID.TID 0000.0001) %MON dynstat_uvel_sd              =   9.3813586286161E-02
(PID.TID 0000.0001) %MON dynstat_uvel_del2            =   1.9486110401541E-06
(PID.TID 0000.0001) %MON dynstat_vvel_max             =   2.6878202085893E+00
(PID.TID 0000.0001) %MON dynstat_vvel_min             =  -2.7194708493256E+00
(PID.TID 0000.0001) %MON dynstat_vvel_mean            =   2.2903791573462E-03
(PID.TID 0000.0001) %MON dynstat_vvel_sd              =   8.6528473836418E-02
(PID.TID 0000.0001) %MON dynstat_vvel_del2            =   1.8307395784882E-06
(PID.TID 0000.0001) %MON dynstat_wvel_max             =   3.4523430643331E-02
(PID.TID 0000.0001) %MON dynstat_wvel_min             =  -3.3846656057531E-02
(PID.TID 0000.0001) %MON dynstat_wvel_mean            =  -1.4791935095389E-05
(PID.TID 0000.0001) %MON dynstat_wvel_sd              =   1.6687262277148E-03
(PID.TID 0000.0001) %MON dynstat_wvel_del2            =   1.0154884722448E-07
(PID.TID 0000.0001) %MON dynstat_theta_max            =   2.4972176745057E+01
(PID.TID 0000.0001) %MON dynstat_theta_min            =  -2.7584232996032E+00
(PID.TID 0000.0001) %MON dynstat_theta_mean           =   5.5807077893347E+00
(PID.TID 0000.0001) %MON dynstat_theta_sd             =   4.6726691910066E+00
(PID.TID 0000.0001) %MON dynstat_theta_del2           =   7.4467701875143E-06
(PID.TID 0000.0001) %MON dynstat_salt_max             =   8.9648740410544E+01
(PID.TID 0000.0001) %MON dynstat_salt_min             =   2.0158400130239E+00
(PID.TID 0000.0001) %MON dynstat_salt_mean            =   3.5191248985510E+01
(PID.TID 0000.0001) %MON dynstat_salt_sd              =   4.5263529223054E-01
(PID.TID 0000.0001) %MON dynstat_salt_del2            =   1.4744959102466E-06
(PID.TID 0000.0001) %MON dynstat_sst_max              =   2.4963464361845E+01
(PID.TID 0000.0001) %MON dynstat_sst_min              =  -2.7584232996032E+00
(PID.TID 0000.0001) %MON dynstat_sst_mean             =   1.7672757293122E+01
(PID.TID 0000.0001) %MON dynstat_sst_sd               =   3.3938278325779E+00
(PID.TID 0000.0001) %MON dynstat_sst_del2             =   8.8475409410537E-05
(PID.TID 0000.0001) %MON dynstat_sss_max              =   8.9648740410544E+01
(PID.TID 0000.0001) %MON dynstat_sss_min              =   2.0158400130239E+00
(PID.TID 0000.0001) %MON dynstat_sss_mean             =   3.6425298029948E+01
(PID.TID 0000.0001) %MON dynstat_sss_sd               =   4.5417656190418E-01
(PID.TID 0000.0001) %MON dynstat_sss_del2             =   1.6733798934658E-05
(PID.TID 0000.0001) %MON forcing_qnet_max             =   1.1319240151288E+03
(PID.TID 0000.0001) %MON forcing_qnet_min             =  -5.3928082053247E+02
(PID.TID 0000.0001) %MON forcing_qnet_mean            =  -2.3157146637051E+01
(PID.TID 0000.0001) %MON forcing_qnet_sd              =   2.7512251239834E+02
(PID.TID 0000.0001) %MON forcing_qnet_del2            =   6.0855837259629E-03
(PID.TID 0000.0001) %MON forcing_qsw_max              =  -3.4730801700825E+01
(PID.TID 0000.0001) %MON forcing_qsw_min              =  -6.7528044703154E+02
(PID.TID 0000.0001) %MON forcing_qsw_mean             =  -3.5843885442212E+02
(PID.TID 0000.0001) %MON forcing_qsw_sd               =   1.1311326655809E+02
(PID.TID 0000.0001) %MON forcing_qsw_del2             =   2.4762528289401E-04
(PID.TID 0000.0001) %MON forcing_empmr_max            =   3.1378664338676E-04
(PID.TID 0000.0001) %MON forcing_empmr_min            =  -1.5608157311245E-03
(PID.TID 0000.0001) %MON forcing_empmr_mean           =   4.5806229746297E-05
(PID.TID 0000.0001) %MON forcing_empmr_sd             =   1.4885078659928E-04
(PID.TID 0000.0001) %MON forcing_empmr_del2           =   1.5934553397559E-09
(PID.TID 0000.0001) %MON forcing_fu_max               =   8.4943308256006E-01
(PID.TID 0000.0001) %MON forcing_fu_min               =  -1.9499049822878E-01
(PID.TID 0000.0001) %MON forcing_fu_mean              =   1.6088087980565E-01
(PID.TID 0000.0001) %MON forcing_fu_sd                =   1.7868619048112E-01
(PID.TID 0000.0001) %MON forcing_fu_del2              =   1.0932011975862E-06
(PID.TID 0000.0001) %MON forcing_fv_max               =   8.8347673216162E-01
(PID.TID 0000.0001) %MON forcing_fv_min               =  -8.2472198735660E-01
(PID.TID 0000.0001) %MON forcing_fv_mean              =  -5.2480631435581E-02
(PID.TID 0000.0001) %MON forcing_fv_sd                =   2.0756617289463E-01
(PID.TID 0000.0001) %MON forcing_fv_del2              =   9.7738537835796E-07
(PID.TID 0000.0001) %MON trAdv_CFL_u_max              =   9.7012109019057E-02
(PID.TID 0000.0001) %MON trAdv_CFL_v_max              =   9.3939985877685E-02
(PID.TID 0000.0001) %MON trAdv_CFL_w_max              =   3.3648425460281E-01
(PID.TID 0000.0001) %MON advcfl_uvel_max              =   9.7012108484670E-02
(PID.TID 0000.0001) %MON advcfl_vvel_max              =   9.3928812614259E-02
(PID.TID 0000.0001) %MON advcfl_wvel_max              =   3.2868596157591E-01
(PID.TID 0000.0001) %MON advcfl_W_hf_max              =   3.3648425460281E-01
(PID.TID 0000.0001) %MON pe_b_mean                    =   1.2908272972802E-02
(PID.TID 0000.0001) %MON ke_max                       =   4.5571009177822E+00
(PID.TID 0000.0001) %MON ke_mean                      =   8.2537910376766E-03
(PID.TID 0000.0001) %MON ke_vol                       =   4.6123795034297E+16
(PID.TID 0000.0001) %MON vort_r_min                   =  -1.3996513816323E-03
(PID.TID 0000.0001) %MON vort_r_max                   =   1.3980314482055E-03
(PID.TID 0000.0001) %MON vort_a_mean                  =   8.2145901475439E-05
(PID.TID 0000.0001) %MON vort_a_sd                    =   1.4088648430247E-05
(PID.TID 0000.0001) %MON vort_p_mean                  =   8.4437932191338E-05
(PID.TID 0000.0001) %MON vort_p_sd                    =   3.4055547815581E-05
(PID.TID 0000.0001) %MON surfExpan_theta_mean         =  -4.6662580144560E-04
(PID.TID 0000.0001) %MON surfExpan_salt_mean          =  -8.7844829934128E-04
(PID.TID 0000.0001) // =======================================================
(PID.TID 0000.0001) // End MONITOR dynamic field statistics
(PID.TID 0000.0001) // =======================================================
(PID.TID 0000.0001) // =======================================================
(PID.TID 0000.0001) // Begin OBCS MONITOR field statistics
(PID.TID 0000.0001) // =======================================================
(PID.TID 0000.0001) %MON obc_E_uVel_max               =   1.4482397330928E-01
(PID.TID 0000.0001) %MON obc_E_uVel_min               =  -1.7311321159492E-01
(PID.TID 0000.0001) %MON obc_E_uVel_mean              =   5.0810661250042E-02
(PID.TID 0000.0001) %MON obc_E_uVel_sd                =   6.9716296444069E-02
(PID.TID 0000.0001) %MON obc_E_uVel_Int               =   3.4675486423547E+05
(PID.TID 0000.0001) %MON obc_N_vVel_max               =   4.3100905519591E-01
(PID.TID 0000.0001) %MON obc_N_vVel_min               =  -2.8803688691791E-01
(PID.TID 0000.0001) %MON obc_N_vVel_mean              =   1.0336469601617E-02
(PID.TID 0000.0001) %MON obc_N_vVel_sd                =   3.9490383338624E-02
(PID.TID 0000.0001) %MON obc_N_vVel_Int               =   1.4749774871045E+08
(PID.TID 0000.0001) %MON obc_S_vVel_max               =   1.2090337572351E+00
(PID.TID 0000.0001) %MON obc_S_vVel_min               =  -1.6438358946184E-01
(PID.TID 0000.0001) %MON obc_S_vVel_mean              =  -4.1255793899696E-03
(PID.TID 0000.0001) %MON obc_S_vVel_sd                =   2.6700704030588E-02
(PID.TID 0000.0001) %MON obc_S_vVel_Int               =  -1.2544995399148E+08
(PID.TID 0000.0001) %MON obc_E_theta_max              =   1.5981519699097E+01
(PID.TID 0000.0001) %MON obc_E_theta_min              =   1.3104037284851E+01
(PID.TID 0000.0001) %MON obc_E_theta_mean             =   1.4974089986960E+01
(PID.TID 0000.0001) %MON obc_E_theta_sd               =   6.0075505804650E-01
(PID.TID 0000.0001) %MON obc_N_theta_max              =   1.5721092224121E+01
(PID.TID 0000.0001) %MON obc_N_theta_min              =   9.7373789548874E-01
(PID.TID 0000.0001) %MON obc_N_theta_mean             =   5.3443110148828E+00
(PID.TID 0000.0001) %MON obc_N_theta_sd               =   3.5834807335781E+00
(PID.TID 0000.0001) %MON obc_S_theta_max              =   2.4979528427124E+01
(PID.TID 0000.0001) %MON obc_S_theta_min              =   1.5124862194061E+00
(PID.TID 0000.0001) %MON obc_S_theta_mean             =   5.4273114502690E+00
(PID.TID 0000.0001) %MON obc_S_theta_sd               =   5.1694562801555E+00
(PID.TID 0000.0001) %MON obc_E_salt_max               =   3.8703720092773E+01
(PID.TID 0000.0001) %MON obc_E_salt_min               =   3.6289142608643E+01
(PID.TID 0000.0001) %MON obc_E_salt_mean              =   3.6643778075730E+01
(PID.TID 0000.0001) %MON obc_E_salt_sd                =   5.5037722650442E-01
(PID.TID 0000.0001) %MON obc_N_salt_max               =   3.6066974639893E+01
(PID.TID 0000.0001) %MON obc_N_salt_min               =   3.2878395080566E+01
(PID.TID 0000.0001) %MON obc_N_salt_mean              =   3.5117165924185E+01
(PID.TID 0000.0001) %MON obc_N_salt_sd                =   3.1541903364831E-01
(PID.TID 0000.0001) %MON obc_S_salt_max               =   3.7600940704346E+01
(PID.TID 0000.0001) %MON obc_S_salt_min               =   3.4853485107422E+01
(PID.TID 0000.0001) %MON obc_S_salt_mean              =   3.5185630803177E+01
(PID.TID 0000.0001) %MON obc_S_salt_sd                =   4.9502018312198E-01
(PID.TID 0000.0001) // =======================================================
(PID.TID 0000.0001) // End OBCS MONITOR field statistics
(PID.TID 0000.0001) // =======================================================
(PID.TID 0000.0001) // =======================================================
(PID.TID 0000.0001) // Begin MONITOR ptracer field statistics
(PID.TID 0000.0001) // =======================================================
(PID.TID 0000.0001) %MON trcstat_ptracer01_max        =   0.0000000000000E+00
(PID.TID 0000.0001) %MON trcstat_ptracer01_min        =   0.0000000000000E+00
(PID.TID 0000.0001) %MON trcstat_ptracer01_mean       =   0.0000000000000E+00
(PID.TID 0000.0001) %MON trcstat_ptracer01_sd         =   0.0000000000000E+00
(PID.TID 0000.0001) %MON trcstat_ptracer01_del2       =   0.0000000000000E+00
(PID.TID 0000.0001) %MON trcstat_ptracer02_max        =   0.0000000000000E+00
(PID.TID 0000.0001) %MON trcstat_ptracer02_min        =   0.0000000000000E+00
(PID.TID 0000.0001) %MON trcstat_ptracer02_mean       =   0.0000000000000E+00
(PID.TID 0000.0001) %MON trcstat_ptracer02_sd         =   0.0000000000000E+00
(PID.TID 0000.0001) %MON trcstat_ptracer02_del2       =   0.0000000000000E+00
(PID.TID 0000.0001) // =======================================================
(PID.TID 0000.0001) // End MONITOR ptracer field statistics
(PID.TID 0000.0001) // =======================================================
(PID.TID 0000.0001) // =======================================================
(PID.TID 0000.0001) // Begin MONITOR EXF statistics
(PID.TID 0000.0001) // =======================================================
(PID.TID 0000.0001) %MON exf_tsnumber                 =              15812955
(PID.TID 0000.0001) %MON exf_time_sec                 =   1.2650364000000E+09
(PID.TID 0000.0001) %MON exf_ustress_max              =   8.5353296312801E-01
(PID.TID 0000.0001) %MON exf_ustress_min              =  -1.9716386877329E-01
(PID.TID 0000.0001) %MON exf_ustress_mean             =   1.6090748839410E-01
(PID.TID 0000.0001) %MON exf_ustress_sd               =   1.7890555414078E-01
(PID.TID 0000.0001) %MON exf_ustress_del2             =   1.1960641615695E-06
(PID.TID 0000.0001) %MON exf_vstress_max              =   8.8216833836240E-01
(PID.TID 0000.0001) %MON exf_vstress_min              =  -8.2744697091591E-01
(PID.TID 0000.0001) %MON exf_vstress_mean             =  -5.2500131403953E-02
(PID.TID 0000.0001) %MON exf_vstress_sd               =   2.0763370385381E-01
(PID.TID 0000.0001) %MON exf_vstress_del2             =   1.0895908403139E-06
(PID.TID 0000.0001) %MON exf_hflux_max                =   1.1025016887043E+03
(PID.TID 0000.0001) %MON exf_hflux_min                =  -5.4027123312684E+02
(PID.TID 0000.0001) %MON exf_hflux_mean               =  -2.6709728488638E+01
(PID.TID 0000.0001) %MON exf_hflux_sd                 =   2.7070757588827E+02
(PID.TID 0000.0001) %MON exf_hflux_del2               =   8.3815949108957E-02
(PID.TID 0000.0001) %MON exf_sflux_max                =   3.1400754458564E-07
(PID.TID 0000.0001) %MON exf_sflux_min                =  -1.5696276196532E-06
(PID.TID 0000.0001) %MON exf_sflux_mean               =   4.5873291099667E-08
(PID.TID 0000.0001) %MON exf_sflux_sd                 =   1.4855089428393E-07
(PID.TID 0000.0001) %MON exf_sflux_del2               =   4.7817205787443E-11
(PID.TID 0000.0001) %MON exf_uwind_max                =   1.9432570413133E+01
(PID.TID 0000.0001) %MON exf_uwind_min                =  -8.1563354107959E+00
(PID.TID 0000.0001) %MON exf_uwind_mean               =   6.4161297103728E+00
(PID.TID 0000.0001) %MON exf_uwind_sd                 =   5.5624205622810E+00
(PID.TID 0000.0001) %MON exf_uwind_del2               =   2.6275947370477E-03
(PID.TID 0000.0001) %MON exf_vwind_max                =   1.8693790013423E+01
(PID.TID 0000.0001) %MON exf_vwind_min                =  -1.8895481257757E+01
(PID.TID 0000.0001) %MON exf_vwind_mean               =  -2.0134499419168E+00
(PID.TID 0000.0001) %MON exf_vwind_sd                 =   8.0156379399370E+00
(PID.TID 0000.0001) %MON exf_vwind_del2               =   2.5475458927676E-03
(PID.TID 0000.0001) %MON exf_wspeed_max               =   2.1273614451716E+01
(PID.TID 0000.0001) %MON exf_wspeed_min               =   2.9011872413645E-02
(PID.TID 0000.0001) %MON exf_wspeed_mean              =   1.1028996016929E+01
(PID.TID 0000.0001) %MON exf_wspeed_sd                =   4.3327730246747E+00
(PID.TID 0000.0001) %MON exf_wspeed_del2              =   3.6595998436946E-03
(PID.TID 0000.0001) %MON exf_atemp_max                =   2.9665129027834E+02
(PID.TID 0000.0001) %MON exf_atemp_min                =   2.6811089106615E+02
(PID.TID 0000.0001) %MON exf_atemp_mean               =   2.8850883975979E+02
(PID.TID 0000.0001) %MON exf_atemp_sd                 =   4.3775552897793E+00
(PID.TID 0000.0001) %MON exf_atemp_del2               =   4.8371733526594E-03
(PID.TID 0000.0001) %MON exf_aqh_max                  =   1.4823849971744E-02
(PID.TID 0000.0001) %MON exf_aqh_min                  =   1.8331251071269E-03
(PID.TID 0000.0001) %MON exf_aqh_mean                 =   7.9074411807018E-03
(PID.TID 0000.0001) %MON exf_aqh_sd                   =   2.4978893510316E-03
(PID.TID 0000.0001) %MON exf_aqh_del2                 =   2.5168321183096E-06
(PID.TID 0000.0001) %MON exf_lwflux_max               =   1.4449967573926E+02
(PID.TID 0000.0001) %MON exf_lwflux_min               =  -1.1502650811179E+00
(PID.TID 0000.0001) %MON exf_lwflux_mean              =   6.5970574391338E+01
(PID.TID 0000.0001) %MON exf_lwflux_sd                =   2.2532371072560E+01
(PID.TID 0000.0001) %MON exf_lwflux_del2              =   2.1453178505263E-02
(PID.TID 0000.0001) %MON exf_evap_max                 =   3.4998418993147E-07
(PID.TID 0000.0001) %MON exf_evap_min                 =  -7.2754665637659E-08
(PID.TID 0000.0001) %MON exf_evap_mean                =   8.7987623635080E-08
(PID.TID 0000.0001) %MON exf_evap_sd                  =   5.9601041350799E-08
(PID.TID 0000.0001) %MON exf_evap_del2                =   3.2764773344438E-11
(PID.TID 0000.0001) %MON exf_precip_max               =   1.5901054607038E-06
(PID.TID 0000.0001) %MON exf_precip_min               =   0.0000000000000E+00
(PID.TID 0000.0001) %MON exf_precip_mean              =   4.0507287900944E-08
(PID.TID 0000.0001) %MON exf_precip_sd                =   1.2806739540567E-07
(PID.TID 0000.0001) %MON exf_precip_del2              =   4.1334045516405E-11
(PID.TID 0000.0001) %MON exf_swflux_max               =  -3.5058552857537E+01
(PID.TID 0000.0001) %MON exf_swflux_min               =  -6.7591157973078E+02
(PID.TID 0000.0001) %MON exf_swflux_mean              =  -3.5846723230716E+02
(PID.TID 0000.0001) %MON exf_swflux_sd                =   1.1287097503402E+02
(PID.TID 0000.0001) %MON exf_swflux_del2              =   1.1423172263144E-01
(PID.TID 0000.0001) %MON exf_swdown_max               =   7.3812563064225E+02
(PID.TID 0000.0001) %MON exf_swdown_min               =   3.8836508526400E+01
(PID.TID 0000.0001) %MON exf_swdown_mean              =   3.9501831784189E+02
(PID.TID 0000.0001) %MON exf_swdown_sd                =   1.2354298973504E+02
(PID.TID 0000.0001) %MON exf_swdown_del2              =   1.2585240684457E-01
(PID.TID 0000.0001) %MON exf_lwdown_max               =   4.1592724548118E+02
(PID.TID 0000.0001) %MON exf_lwdown_min               =   2.1758019906196E+02
(PID.TID 0000.0001) %MON exf_lwdown_mean              =   3.3791626896545E+02
(PID.TID 0000.0001) %MON exf_lwdown_sd                =   3.2605428217822E+01
(PID.TID 0000.0001) %MON exf_lwdown_del2              =   1.0339941237896E-01
(PID.TID 0000.0001) %MON exf_apressure_max            =   1.0293071671292E+05
(PID.TID 0000.0001) %MON exf_apressure_min            =   9.8089506888346E+04
(PID.TID 0000.0001) %MON exf_apressure_mean           =   1.0137672155329E+05
(PID.TID 0000.0001) %MON exf_apressure_sd             =   1.1620926320750E+03
(PID.TID 0000.0001) %MON exf_apressure_del2           =   3.0977499077861E+01
(PID.TID 0000.0001) %MON exf_runoff_max               =   4.6633690723924E-08
(PID.TID 0000.0001) %MON exf_runoff_min               =   0.0000000000000E+00
(PID.TID 0000.0001) %MON exf_runoff_mean              =   1.6070446344693E-09
(PID.TID 0000.0001) %MON exf_runoff_sd                =   5.4409705936606E-09
(PID.TID 0000.0001) %MON exf_runoff_del2              =   1.7602788524736E-12
(PID.TID 0000.0001) // =======================================================
(PID.TID 0000.0001) // End MONITOR EXF statistics
(PID.TID 0000.0001) // =======================================================
 cg2d: Sum(rhs),rhsMax =  -1.35574047989610E+05  1.81563043175941E-02
 cg2d: Sum(rhs),rhsMax =  -1.35035984619254E+05  1.76550039563841E-02
 cg2d: Sum(rhs),rhsMax =  -1.34483380482474E+05  1.71473837374098E-02
 cg2d: Sum(rhs),rhsMax =  -1.33916303276071E+05  1.66334857957481E-02
 cg2d: Sum(rhs),rhsMax =  -1.33334822567057E+05  1.61133578465734E-02
 cg2d: Sum(rhs),rhsMax =  -1.32739009784557E+05  1.55870577245546E-02
 cg2d: Sum(rhs),rhsMax =  -1.32128938211516E+05  1.50546584289118E-02
 cg2d: Sum(rhs),rhsMax =  -1.31504682976125E+05  1.45162527449012E-02
 cg2d: Sum(rhs),rhsMax =  -1.30866321043076E+05  1.39719564535733E-02
 cg2d: Sum(rhs),rhsMax =  -1.30213931204504E+05  1.34219093154637E-02
 cg2d: Sum(rhs),rhsMax =  -1.29547594070776E+05  1.28662733850737E-02
 cg2d: Sum(rhs),rhsMax =  -1.28867392060968E+05  1.23052285957666E-02
 cg2d: Sum(rhs),rhsMax =  -1.28173409393188E+05  1.17389659070560E-02
 cg2d: Sum(rhs),rhsMax =  -1.27465732074586E+05  1.11676785568770E-02
 cg2d: Sum(rhs),rhsMax =  -1.26744447891229E+05  1.05915521061532E-02
 cg2d: Sum(rhs),rhsMax =  -1.26009646397634E+05  1.00107539946734E-02
 cg2d: Sum(rhs),rhsMax =  -1.25261418906192E+05  9.42542333114436E-03
 cg2d: Sum(rhs),rhsMax =  -1.24499858476258E+05  8.83566156305910E-03
 cg2d: Sum(rhs),rhsMax =  -1.23725059903105E+05  8.24152456786158E-03
 cg2d: Sum(rhs),rhsMax =  -1.22937119706554E+05  7.64301663744724E-03
 cg2d: Sum(rhs),rhsMax =  -1.22136136119510E+05  7.04008673315021E-03
 cg2d: Sum(rhs),rhsMax =  -1.21322209076119E+05  6.43262732768775E-03
 cg2d: Sum(rhs),rhsMax =  -1.20495440199862E+05  5.82047606039086E-03
 cg2d: Sum(rhs),rhsMax =  -1.19655932791283E+05  5.20342034334073E-03
 cg2d: Sum(rhs),rhsMax =  -1.18803791815624E+05  4.58120638790640E-03
 cg2d: Sum(rhs),rhsMax =  -1.17939123890124E+05  3.95354999405039E-03
 cg2d: Sum(rhs),rhsMax =  -1.17062037271223E+05  3.32014801343130E-03
 cg2d: Sum(rhs),rhsMax =  -1.16172641841422E+05  2.68069230023455E-03
 cg2d: Sum(rhs),rhsMax =  -1.15271049096052E+05  2.03488514695547E-03
 cg2d: Sum(rhs),rhsMax =  -1.14357372129718E+05  2.65806150223278E-03
 cg2d: Sum(rhs),rhsMax =  -1.13431725622636E+05  3.33096597069197E-03
 cg2d: Sum(rhs),rhsMax =  -1.12494225826647E+05  4.00965557201351E-03
 cg2d: Sum(rhs),rhsMax =  -1.11544990551154E+05  4.69576738230245E-03
 cg2d: Sum(rhs),rhsMax =  -1.10584139148699E+05  5.38763703221867E-03
 cg2d: Sum(rhs),rhsMax =  -1.09611792500497E+05  6.08539861079951E-03
 cg2d: Sum(rhs),rhsMax =  -1.08628073001606E+05  6.78917534398170E-03
 cg2d: Sum(rhs),rhsMax =  -1.07633104546042E+05  7.49907919954919E-03
 cg2d: Sum(rhs),rhsMax =  -1.06627012511547E+05  8.21520883596798E-03
 cg2d: Sum(rhs),rhsMax =  -1.05609923744315E+05  8.93764715387021E-03
 cg2d: Sum(rhs),rhsMax =  -1.04581966543349E+05  9.66652326785262E-03
 cg2d: Sum(rhs),rhsMax =  -1.03543270644789E+05  1.04016910964764E-02
 cg2d: Sum(rhs),rhsMax =  -1.02493967205897E+05  1.11433675509331E-02
 cg2d: Sum(rhs),rhsMax =  -1.01434188788976E+05  1.18914917084260E-02
 cg2d: Sum(rhs),rhsMax =  -1.00364069344975E+05  1.26460436370391E-02
 cg2d: Sum(rhs),rhsMax =  -9.92837441970411E+04  1.34069797502347E-02
(PID.TID 0000.0001)      cg2d_init_res =   8.32363184161856E-01
(PID.TID 0000.0001)      cg2d_iters(min,last) =      -1     150
(PID.TID 0000.0001)      cg2d_last_res =   2.11609792360660E-11
(PID.TID 0000.0001) // =======================================================
(PID.TID 0000.0001) // Begin MONITOR dynamic field statistics
(PID.TID 0000.0001) // =======================================================
(PID.TID 0000.0001) %MON time_tsnumber                =              15813000
(PID.TID 0000.0001) %MON time_secondsf                =   1.2650400000000E+09
(PID.TID 0000.0001) %MON dynstat_eta_max              =   1.5037695116862E+00
(PID.TID 0000.0001) %MON dynstat_eta_min              =  -1.0709635727024E+00
(PID.TID 0000.0001) %MON dynstat_eta_mean             =   3.7521484843649E-01
(PID.TID 0000.0001) %MON dynstat_eta_sd               =   3.9745396946734E-01
(PID.TID 0000.0001) %MON dynstat_eta_del2             =   1.0614767266262E-06
(PID.TID 0000.0001) %MON dynstat_uvel_max             =   2.8844056321814E+00
(PID.TID 0000.0001) %MON dynstat_uvel_min             =  -2.8392125021309E+00
(PID.TID 0000.0001) %MON dynstat_uvel_mean            =   1.2486792268913E-02
(PID.TID 0000.0001) %MON dynstat_uvel_sd              =   9.3797426255856E-02
(PID.TID 0000.0001) %MON dynstat_uvel_del2            =   1.9647287333194E-06
(PID.TID 0000.0001) %MON dynstat_vvel_max             =   2.7045478211463E+00
(PID.TID 0000.0001) %MON dynstat_vvel_min             =  -2.6602257204536E+00
(PID.TID 0000.0001) %MON dynstat_vvel_mean            =  -4.9130961142006E-03
(PID.TID 0000.0001) %MON dynstat_vvel_sd              =   8.6722670073082E-02
(PID.TID 0000.0001) %MON dynstat_vvel_del2            =   1.8491252861839E-06
(PID.TID 0000.0001) %MON dynstat_wvel_max             =   3.3602100580679E-02
(PID.TID 0000.0001) %MON dynstat_wvel_min             =  -3.3573595393200E-02
(PID.TID 0000.0001) %MON dynstat_wvel_mean            =  -3.1468987084722E-05
(PID.TID 0000.0001) %MON dynstat_wvel_sd              =   1.6726770173353E-03
(PID.TID 0000.0001) %MON dynstat_wvel_del2            =   1.0171995571095E-07
(PID.TID 0000.0001) %MON dynstat_theta_max            =   2.4973609896733E+01
(PID.TID 0000.0001) %MON dynstat_theta_min            =  -2.6961455911289E+00
(PID.TID 0000.0001) %MON dynstat_theta_mean           =   5.5811606590091E+00
(PID.TID 0000.0001) %MON dynstat_theta_sd             =   4.6732576452581E+00
(PID.TID 0000.0001) %MON dynstat_theta_del2           =   7.4232720149901E-06
(PID.TID 0000.0001) %MON dynstat_salt_max             =   8.9651618056402E+01
(PID.TID 0000.0001) %MON dynstat_salt_min             =   2.0158460270065E+00
(PID.TID 0000.0001) %MON dynstat_salt_mean            =   3.5191294294888E+01
(PID.TID 0000.0001) %MON dynstat_salt_sd              =   4.5270131153571E-01
(PID.TID 0000.0001) %MON dynstat_salt_del2            =   1.4725623635413E-06
(PID.TID 0000.0001) %MON dynstat_sst_max              =   2.4966280360050E+01
(PID.TID 0000.0001) %MON dynstat_sst_min              =  -2.6961455911289E+00
(PID.TID 0000.0001) %MON dynstat_sst_mean             =   1.7676842651844E+01
(PID.TID 0000.0001) %MON dynstat_sst_sd               =   3.3958274692761E+00
(PID.TID 0000.0001) %MON dynstat_sst_del2             =   8.8707528301776E-05
(PID.TID 0000.0001) %MON dynstat_sss_max              =   8.9651618056402E+01
(PID.TID 0000.0001) %MON dynstat_sss_min              =   2.0158460270065E+00
(PID.TID 0000.0001) %MON dynstat_sss_mean             =   3.6425542473035E+01
(PID.TID 0000.0001) %MON dynstat_sss_sd               =   4.5407436366701E-01
(PID.TID 0000.0001) %MON dynstat_sss_del2             =   1.6682976011739E-05
(PID.TID 0000.0001) %MON forcing_qnet_max             =   1.0498583242373E+03
(PID.TID 0000.0001) %MON forcing_qnet_min             =  -5.2182461514168E+02
(PID.TID 0000.0001) %MON forcing_qnet_mean            =  -4.2855200041026E+00
(PID.TID 0000.0001) %MON forcing_qnet_sd              =   2.5329638027877E+02
(PID.TID 0000.0001) %MON forcing_qnet_del2            =   6.0736830737006E-03
(PID.TID 0000.0001) %MON forcing_qsw_max              =  -3.4736564027629E+01
(PID.TID 0000.0001) %MON forcing_qsw_min              =  -6.6594746300968E+02
(PID.TID 0000.0001) %MON forcing_qsw_mean             =  -3.4012623167252E+02
(PID.TID 0000.0001) %MON forcing_qsw_sd               =   1.0959005192328E+02
(PID.TID 0000.0001) %MON forcing_qsw_del2             =   2.4200632746248E-04
(PID.TID 0000.0001) %MON forcing_empmr_max            =   3.2513025440800E-04
(PID.TID 0000.0001) %MON forcing_empmr_min            =  -1.4459402777528E-03
(PID.TID 0000.0001) %MON forcing_empmr_mean           =   4.8579407552453E-05
(PID.TID 0000.0001) %MON forcing_empmr_sd             =   1.3735814686025E-04
(PID.TID 0000.0001) %MON forcing_empmr_del2           =   1.5810338426319E-09
(PID.TID 0000.0001) %MON forcing_fu_max               =   9.2625122652680E-01
(PID.TID 0000.0001) %MON forcing_fu_min               =  -2.1099039197168E-01
(PID.TID 0000.0001) %MON forcing_fu_mean              =   1.6107599007793E-01
(PID.TID 0000.0001) %MON forcing_fu_sd                =   1.8137645950335E-01
(PID.TID 0000.0001) %MON forcing_fu_del2              =   1.1215980706864E-06
(PID.TID 0000.0001) %MON forcing_fv_max               =   8.1866947930406E-01
(PID.TID 0000.0001) %MON forcing_fv_min               =  -8.7711874815947E-01
(PID.TID 0000.0001) %MON forcing_fv_mean              =  -5.6234558415268E-02
(PID.TID 0000.0001) %MON forcing_fv_sd                =   2.0359213136646E-01
(PID.TID 0000.0001) %MON forcing_fv_del2              =   9.7053236318063E-07
(PID.TID 0000.0001) %MON trAdv_CFL_u_max              =   9.7665263674360E-02
(PID.TID 0000.0001) %MON trAdv_CFL_v_max              =   9.3402248951518E-02
(PID.TID 0000.0001) %MON trAdv_CFL_w_max              =   3.9747776613166E-01
(PID.TID 0000.0001) %MON advcfl_uvel_max              =   9.7665263136374E-02
(PID.TID 0000.0001) %MON advcfl_vvel_max              =   9.3413380607391E-02
(PID.TID 0000.0001) %MON advcfl_wvel_max              =   3.8902873696907E-01
(PID.TID 0000.0001) %MON advcfl_W_hf_max              =   3.9747776613166E-01
(PID.TID 0000.0001) %MON pe_b_mean                    =   9.4117351483505E-03
(PID.TID 0000.0001) %MON ke_max                       =   4.6377197060890E+00
(PID.TID 0000.0001) %MON ke_mean                      =   8.2049770474293E-03
(PID.TID 0000.0001) %MON ke_vol                       =   4.6123795034297E+16
(PID.TID 0000.0001) %MON vort_r_min                   =  -9.4019577884377E-04
(PID.TID 0000.0001) %MON vort_r_max                   =   1.1948635258888E-03
(PID.TID 0000.0001) %MON vort_a_mean                  =   8.2145898762522E-05
(PID.TID 0000.0001) %MON vort_a_sd                    =   1.4069038292734E-05
(PID.TID 0000.0001) %MON vort_p_mean                  =   8.4437929402726E-05
(PID.TID 0000.0001) %MON vort_p_sd                    =   3.4019094673666E-05
(PID.TID 0000.0001) %MON surfExpan_theta_mean         =  -9.1038874368420E-04
(PID.TID 0000.0001) %MON surfExpan_salt_mean          =  -1.8603923926403E-03
(PID.TID 0000.0001) // =======================================================
(PID.TID 0000.0001) // End MONITOR dynamic field statistics
(PID.TID 0000.0001) // =======================================================
(PID.TID 0000.0001) // =======================================================
(PID.TID 0000.0001) // Begin OBCS MONITOR field statistics
(PID.TID 0000.0001) // =======================================================
(PID.TID 0000.0001) %MON obc_E_uVel_max               =   4.2629784626528E-01
(PID.TID 0000.0001) %MON obc_E_uVel_min               =   8.2229512450601E-02
(PID.TID 0000.0001) %MON obc_E_uVel_mean              =   3.0018616931877E-01
(PID.TID 0000.0001) %MON obc_E_uVel_sd                =   7.5399664683201E-02
(PID.TID 0000.0001) %MON obc_E_uVel_Int               =   2.0486057812800E+06
(PID.TID 0000.0001) %MON obc_N_vVel_max               =   2.0455355043197E-01
(PID.TID 0000.0001) %MON obc_N_vVel_min               =  -4.5266648295461E-01
(PID.TID 0000.0001) %MON obc_N_vVel_mean              =   9.0153184290882E-03
(PID.TID 0000.0001) %MON obc_N_vVel_sd                =   3.9213094564873E-02
(PID.TID 0000.0001) %MON obc_N_vVel_Int               =   1.2864539087798E+08
(PID.TID 0000.0001) %MON obc_S_vVel_max               =   1.2043584817848E+00
(PID.TID 0000.0001) %MON obc_S_vVel_min               =  -1.6422980483095E-01
(PID.TID 0000.0001) %MON obc_S_vVel_mean              =  -1.4785742395599E-02
(PID.TID 0000.0001) %MON obc_S_vVel_sd                =   2.7088711671209E-02
(PID.TID 0000.0001) %MON obc_S_vVel_Int               =  -4.4960247468938E+08
(PID.TID 0000.0001) %MON obc_E_theta_max              =   1.5981519699097E+01
(PID.TID 0000.0001) %MON obc_E_theta_min              =   1.3104037284851E+01
(PID.TID 0000.0001) %MON obc_E_theta_mean             =   1.4974089986960E+01
(PID.TID 0000.0001) %MON obc_E_theta_sd               =   6.0075505804650E-01
(PID.TID 0000.0001) %MON obc_N_theta_max              =   1.5721092224121E+01
(PID.TID 0000.0001) %MON obc_N_theta_min              =   9.7373789548874E-01
(PID.TID 0000.0001) %MON obc_N_theta_mean             =   5.3443110148828E+00
(PID.TID 0000.0001) %MON obc_N_theta_sd               =   3.5834807335781E+00
(PID.TID 0000.0001) %MON obc_S_theta_max              =   2.4979528427124E+01
(PID.TID 0000.0001) %MON obc_S_theta_min              =   1.5124862194061E+00
(PID.TID 0000.0001) %MON obc_S_theta_mean             =   5.4273114502690E+00
(PID.TID 0000.0001) %MON obc_S_theta_sd               =   5.1694562801555E+00
(PID.TID 0000.0001) %MON obc_E_salt_max               =   3.8703720092773E+01
(PID.TID 0000.0001) %MON obc_E_salt_min               =   3.6289142608643E+01
(PID.TID 0000.0001) %MON obc_E_salt_mean              =   3.6643778075730E+01
(PID.TID 0000.0001) %MON obc_E_salt_sd                =   5.5037722650442E-01
(PID.TID 0000.0001) %MON obc_N_salt_max               =   3.6066974639893E+01
(PID.TID 0000.0001) %MON obc_N_salt_min               =   3.2878395080566E+01
(PID.TID 0000.0001) %MON obc_N_salt_mean              =   3.5117165924185E+01
(PID.TID 0000.0001) %MON obc_N_salt_sd                =   3.1541903364831E-01
(PID.TID 0000.0001) %MON obc_S_salt_max               =   3.7600940704346E+01
(PID.TID 0000.0001) %MON obc_S_salt_min               =   3.4853485107422E+01
(PID.TID 0000.0001) %MON obc_S_salt_mean              =   3.5185630803177E+01
(PID.TID 0000.0001) %MON obc_S_salt_sd                =   4.9502018312198E-01
(PID.TID 0000.0001) // =======================================================
(PID.TID 0000.0001) // End OBCS MONITOR field statistics
(PID.TID 0000.0001) // =======================================================
(PID.TID 0000.0001) // =======================================================
(PID.TID 0000.0001) // Begin MONITOR ptracer field statistics
(PID.TID 0000.0001) // =======================================================
(PID.TID 0000.0001) %MON trcstat_ptracer01_max        =   0.0000000000000E+00
(PID.TID 0000.0001) %MON trcstat_ptracer01_min        =   0.0000000000000E+00
(PID.TID 0000.0001) %MON trcstat_ptracer01_mean       =   0.0000000000000E+00
(PID.TID 0000.0001) %MON trcstat_ptracer01_sd         =   0.0000000000000E+00
(PID.TID 0000.0001) %MON trcstat_ptracer01_del2       =   0.0000000000000E+00
(PID.TID 0000.0001) %MON trcstat_ptracer02_max        =   0.0000000000000E+00
(PID.TID 0000.0001) %MON trcstat_ptracer02_min        =   0.0000000000000E+00
(PID.TID 0000.0001) %MON trcstat_ptracer02_mean       =   0.0000000000000E+00
(PID.TID 0000.0001) %MON trcstat_ptracer02_sd         =   0.0000000000000E+00
(PID.TID 0000.0001) %MON trcstat_ptracer02_del2       =   0.0000000000000E+00
(PID.TID 0000.0001) // =======================================================
(PID.TID 0000.0001) // End MONITOR ptracer field statistics
(PID.TID 0000.0001) // =======================================================
(PID.TID 0000.0001) // =======================================================
(PID.TID 0000.0001) // Begin MONITOR EXF statistics
(PID.TID 0000.0001) // =======================================================
(PID.TID 0000.0001) %MON exf_tsnumber                 =              15813000
(PID.TID 0000.0001) %MON exf_time_sec                 =   1.2650400000000E+09
(PID.TID 0000.0001) %MON exf_ustress_max              =   9.3128713127032E-01
(PID.TID 0000.0001) %MON exf_ustress_min              =  -2.1207514720017E-01
(PID.TID 0000.0001) %MON exf_ustress_mean             =   1.6110142597948E-01
(PID.TID 0000.0001) %MON exf_ustress_sd               =   1.8160704495967E-01
(PID.TID 0000.0001) %MON exf_ustress_del2             =   1.2247338584734E-06
(PID.TID 0000.0001) %MON exf_vstress_max              =   8.1559368811357E-01
(PID.TID 0000.0001) %MON exf_vstress_min              =  -8.7956971681592E-01
(PID.TID 0000.0001) %MON exf_vstress_mean             =  -5.6288515092052E-02
(PID.TID 0000.0001) %MON exf_vstress_sd               =   2.0365278518419E-01
(PID.TID 0000.0001) %MON exf_vstress_del2             =   1.0807998397107E-06
(PID.TID 0000.0001) %MON exf_hflux_max                =   1.0277475571818E+03
(PID.TID 0000.0001) %MON exf_hflux_min                =  -5.2226727306292E+02
(PID.TID 0000.0001) %MON exf_hflux_mean               =  -7.1312325091341E+00
(PID.TID 0000.0001) %MON exf_hflux_sd                 =   2.4924588664048E+02
(PID.TID 0000.0001) %MON exf_hflux_del2               =   7.7068338760078E-02
(PID.TID 0000.0001) %MON exf_sflux_max                =   3.2514149298200E-07
(PID.TID 0000.0001) %MON exf_sflux_min                =  -1.4453354691688E-06
(PID.TID 0000.0001) %MON exf_sflux_mean               =   4.8666884855244E-08
(PID.TID 0000.0001) %MON exf_sflux_sd                 =   1.3705582774864E-07
(PID.TID 0000.0001) %MON exf_sflux_del2               =   4.4864712108776E-11
(PID.TID 0000.0001) %MON exf_uwind_max                =   2.0081480216881E+01
(PID.TID 0000.0001) %MON exf_uwind_min                =  -7.8538811775911E+00
(PID.TID 0000.0001) %MON exf_uwind_mean               =   6.4004842789122E+00
(PID.TID 0000.0001) %MON exf_uwind_sd                 =   5.6399277234040E+00
(PID.TID 0000.0001) %MON exf_uwind_del2               =   2.6399384959456E-03
(PID.TID 0000.0001) %MON exf_vwind_max                =   1.7841398533629E+01
(PID.TID 0000.0001) %MON exf_vwind_min                =  -1.8849269464149E+01
(PID.TID 0000.0001) %MON exf_vwind_mean               =  -2.1598271496727E+00
(PID.TID 0000.0001) %MON exf_vwind_sd                 =   7.9147528661259E+00
(PID.TID 0000.0001) %MON exf_vwind_del2               =   2.5285463558998E-03
(PID.TID 0000.0001) %MON exf_wspeed_max               =   2.1546814181542E+01
(PID.TID 0000.0001) %MON exf_wspeed_min               =   1.7315131152018E-02
(PID.TID 0000.0001) %MON exf_wspeed_mean              =   1.1015774551491E+01
(PID.TID 0000.0001) %MON exf_wspeed_sd                =   4.3284940809556E+00
(PID.TID 0000.0001) %MON exf_wspeed_del2              =   3.6553036001076E-03
(PID.TID 0000.0001) %MON exf_atemp_max                =   2.9663307478616E+02
(PID.TID 0000.0001) %MON exf_atemp_min                =   2.6889203788294E+02
(PID.TID 0000.0001) %MON exf_atemp_mean               =   2.8853976712153E+02
(PID.TID 0000.0001) %MON exf_atemp_sd                 =   4.2947459252942E+00
(PID.TID 0000.0001) %MON exf_atemp_del2               =   4.8392022411360E-03
(PID.TID 0000.0001) %MON exf_aqh_max                  =   1.4737071933070E-02
(PID.TID 0000.0001) %MON exf_aqh_min                  =   1.9101172374083E-03
(PID.TID 0000.0001) %MON exf_aqh_mean                 =   7.8781948461253E-03
(PID.TID 0000.0001) %MON exf_aqh_sd                   =   2.4486302806946E-03
(PID.TID 0000.0001) %MON exf_aqh_del2                 =   2.5034767799116E-06
(PID.TID 0000.0001) %MON exf_lwflux_max               =   1.5065539107479E+02
(PID.TID 0000.0001) %MON exf_lwflux_min               =   1.9855216416667E+00
(PID.TID 0000.0001) %MON exf_lwflux_mean              =   6.5479098065397E+01
(PID.TID 0000.0001) %MON exf_lwflux_sd                =   2.1567516967833E+01
(PID.TID 0000.0001) %MON exf_lwflux_del2              =   2.1214161690214E-02
(PID.TID 0000.0001) %MON exf_evap_max                 =   3.4863260874409E-07
(PID.TID 0000.0001) %MON exf_evap_min                 =  -4.8846041141883E-08
(PID.TID 0000.0001) %MON exf_evap_mean                =   8.8552357823613E-08
(PID.TID 0000.0001) %MON exf_evap_sd                  =   5.8950393791345E-08
(PID.TID 0000.0001) %MON exf_evap_del2                =   3.2810560127341E-11
(PID.TID 0000.0001) %MON exf_precip_max               =   1.4580258911797E-06
(PID.TID 0000.0001) %MON exf_precip_min               =   0.0000000000000E+00
(PID.TID 0000.0001) %MON exf_precip_mean              =   3.8278428333900E-08
(PID.TID 0000.0001) %MON exf_precip_sd                =   1.1621026767207E-07
(PID.TID 0000.0001) %MON exf_precip_del2              =   3.7795880829836E-11
(PID.TID 0000.0001) %MON exf_swflux_max               =  -3.4896815541183E+01
(PID.TID 0000.0001) %MON exf_swflux_min               =  -6.6482351838448E+02
(PID.TID 0000.0001) %MON exf_swflux_mean              =  -3.3924345667187E+02
(PID.TID 0000.0001) %MON exf_swflux_sd                =   1.0966451912438E+02
(PID.TID 0000.0001) %MON exf_swflux_del2              =   1.0824957882360E-01
(PID.TID 0000.0001) %MON exf_swdown_max               =   7.2600926522928E+02
(PID.TID 0000.0001) %MON exf_swdown_min               =   3.8794174166759E+01
(PID.TID 0000.0001) %MON exf_swdown_mean              =   3.7378049808031E+02
(PID.TID 0000.0001) %MON exf_swdown_sd                =   1.2000306456199E+02
(PID.TID 0000.0001) %MON exf_swdown_del2              =   1.1923972471030E-01
(PID.TID 0000.0001) %MON exf_lwdown_max               =   4.1634995138609E+02
(PID.TID 0000.0001) %MON exf_lwdown_min               =   2.1549562807567E+02
(PID.TID 0000.0001) %MON exf_lwdown_mean              =   3.3844614086702E+02
(PID.TID 0000.0001) %MON exf_lwdown_sd                =   3.2174435328842E+01
(PID.TID 0000.0001) %MON exf_lwdown_del2              =   1.0355368749607E-01
(PID.TID 0000.0001) %MON exf_apressure_max            =   1.0291217303485E+05
(PID.TID 0000.0001) %MON exf_apressure_min            =   9.8133055827874E+04
(PID.TID 0000.0001) %MON exf_apressure_mean           =   1.0136722097028E+05
(PID.TID 0000.0001) %MON exf_apressure_sd             =   1.1363334499241E+03
(PID.TID 0000.0001) %MON exf_apressure_del2           =   3.0974903059973E+01
(PID.TID 0000.0001) %MON exf_runoff_max               =   4.6633690723924E-08
(PID.TID 0000.0001) %MON exf_runoff_min               =   0.0000000000000E+00
(PID.TID 0000.0001) %MON exf_runoff_mean              =   1.6070446344693E-09
(PID.TID 0000.0001) %MON exf_runoff_sd                =   5.4409705936606E-09
(PID.TID 0000.0001) %MON exf_runoff_del2              =   1.7602788524736E-12
(PID.TID 0000.0001) // =======================================================
(PID.TID 0000.0001) // End MONITOR EXF statistics
(PID.TID 0000.0001) // =======================================================
 cg2d: Sum(rhs),rhsMax =  -9.81933500237347E+04  1.41742323531410E-02
 cg2d: Sum(rhs),rhsMax =  -9.70930248421994E+04  1.49476956984940E-02
 cg2d: Sum(rhs),rhsMax =  -9.59829079910300E+04  1.57272405247898E-02
 cg2d: Sum(rhs),rhsMax =  -9.48631401130596E+04  1.65127112570102E-02
 cg2d: Sum(rhs),rhsMax =  -9.37338631378603E+04  1.73047383906203E-02
 cg2d: Sum(rhs),rhsMax =  -9.25952202641939E+04  1.81048191688615E-02
 cg2d: Sum(rhs),rhsMax =  -9.14473559421396E+04  1.89105643752812E-02
 cg2d: Sum(rhs),rhsMax =  -9.02904158551903E+04  1.97217202714752E-02
 cg2d: Sum(rhs),rhsMax =  -8.91245469020544E+04  2.05380019435977E-02
 cg2d: Sum(rhs),rhsMax =  -8.79498971783915E+04  2.13590926636282E-02
 cg2d: Sum(rhs),rhsMax =  -8.67666159582753E+04  2.21846444847042E-02
 cg2d: Sum(rhs),rhsMax =  -8.55748536756130E+04  2.30142801381586E-02
 cg2d: Sum(rhs),rhsMax =  -8.43747619052625E+04  2.38475962830458E-02
 cg2d: Sum(rhs),rhsMax =  -8.31664933441211E+04  2.46841610153013E-02
 cg2d: Sum(rhs),rhsMax =  -8.19502017919440E+04  2.55235235698135E-02
 cg2d: Sum(rhs),rhsMax =  -8.07260421320947E+04  2.63652156271041E-02
 cg2d: Sum(rhs),rhsMax =  -7.94941703120566E+04  2.72087501857124E-02
 cg2d: Sum(rhs),rhsMax =  -7.82547433238877E+04  2.80536203811120E-02
 cg2d: Sum(rhs),rhsMax =  -7.70079191844161E+04  2.88993076168047E-02
 cg2d: Sum(rhs),rhsMax =  -7.57538569153924E+04  2.97452695198907E-02
 cg2d: Sum(rhs),rhsMax =  -7.44927165234085E+04  3.05909370227395E-02
 cg2d: Sum(rhs),rhsMax =  -7.32246589797466E+04  3.14357172383414E-02
 cg2d: Sum(rhs),rhsMax =  -7.19498462000144E+04  3.22790055426000E-02
 cg2d: Sum(rhs),rhsMax =  -7.06684410237276E+04  3.31201977705769E-02
 cg2d: Sum(rhs),rhsMax =  -6.93806071936585E+04  3.39586975726384E-02
 cg2d: Sum(rhs),rhsMax =  -6.80865093351453E+04  3.47939122441849E-02
 cg2d: Sum(rhs),rhsMax =  -6.67863129351922E+04  3.56252670798384E-02
 cg2d: Sum(rhs),rhsMax =  -6.54801843215058E+04  3.64522180092966E-02
 cg2d: Sum(rhs),rhsMax =  -6.41682906413419E+04  3.72742615857356E-02
 cg2d: Sum(rhs),rhsMax =  -6.28507998403034E+04  3.80909417082799E-02
 cg2d: Sum(rhs),rhsMax =  -6.15278806409340E+04  3.89018509308186E-02
 cg2d: Sum(rhs),rhsMax =  -6.01997025212719E+04  3.97066314249010E-02
 cg2d: Sum(rhs),rhsMax =  -5.88664356932262E+04  4.05049766469834E-02
 cg2d: Sum(rhs),rhsMax =  -5.75282510808898E+04  4.12966338287930E-02
 cg2d: Sum(rhs),rhsMax =  -5.61853202986935E+04  4.20814060090225E-02
 cg2d: Sum(rhs),rhsMax =  -5.48378156295127E+04  4.28591530986517E-02
 cg2d: Sum(rhs),rhsMax =  -5.34859100025991E+04  4.36297911017700E-02
 cg2d: Sum(rhs),rhsMax =  -5.21297769714790E+04  4.43932903117901E-02
 cg2d: Sum(rhs),rhsMax =  -5.07695906916973E+04  4.51496684633743E-02
 cg2d: Sum(rhs),rhsMax =  -4.94055258985096E+04  4.58989854627395E-02
 cg2d: Sum(rhs),rhsMax =  -4.80377578844373E+04  4.66413392665803E-02
 cg2d: Sum(rhs),rhsMax =  -4.66664624767862E+04  4.73768602106355E-02
 cg2d: Sum(rhs),rhsMax =  -4.52918160150133E+04  4.81057058985438E-02
 cg2d: Sum(rhs),rhsMax =  -4.39139953280703E+04  4.88280506764743E-02
 cg2d: Sum(rhs),rhsMax =  -4.25331777116187E+04  4.95440877520321E-02
(PID.TID 0000.0001)      cg2d_init_res =   1.05026808444840E+00
(PID.TID 0000.0001)      cg2d_iters(min,last) =      -1     154
(PID.TID 0000.0001)      cg2d_last_res =   1.77017943170751E-11
(PID.TID 0000.0001) // =======================================================
(PID.TID 0000.0001) // Begin MONITOR dynamic field statistics
(PID.TID 0000.0001) // =======================================================
(PID.TID 0000.0001) %MON time_tsnumber                =              15813045
(PID.TID 0000.0001) %MON time_secondsf                =   1.2650436000000E+09
(PID.TID 0000.0001) %MON dynstat_eta_max              =   1.5172028871988E+00
(PID.TID 0000.0001) %MON dynstat_eta_min              =  -1.0664772399905E+00
(PID.TID 0000.0001) %MON dynstat_eta_mean             =   1.6074212307016E-01
(PID.TID 0000.0001) %MON dynstat_eta_sd               =   3.8551546138605E-01
(PID.TID 0000.0001) %MON dynstat_eta_del2             =   1.1093818113130E-06
(PID.TID 0000.0001) %MON dynstat_uvel_max             =   2.9182876735902E+00
(PID.TID 0000.0001) %MON dynstat_uvel_min             =  -2.8752011355494E+00
(PID.TID 0000.0001) %MON dynstat_uvel_mean            =   4.7675054397747E-03
(PID.TID 0000.0001) %MON dynstat_uvel_sd              =   9.4061005557390E-02
(PID.TID 0000.0001) %MON dynstat_uvel_del2            =   1.9753137634647E-06
(PID.TID 0000.0001) %MON dynstat_vvel_max             =   2.7835855271444E+00
(PID.TID 0000.0001) %MON dynstat_vvel_min             =  -2.6777776982802E+00
(PID.TID 0000.0001) %MON dynstat_vvel_mean            =  -1.1279007060946E-02
(PID.TID 0000.0001) %MON dynstat_vvel_sd              =   8.6808571683563E-02
(PID.TID 0000.0001) %MON dynstat_vvel_del2            =   1.8644682564183E-06
(PID.TID 0000.0001) %MON dynstat_wvel_max             =   3.3128702815100E-02
(PID.TID 0000.0001) %MON dynstat_wvel_min             =  -3.2326038616273E-02
(PID.TID 0000.0001) %MON dynstat_wvel_mean            =  -4.0592316123480E-05
(PID.TID 0000.0001) %MON dynstat_wvel_sd              =   1.6780036083815E-03
(PID.TID 0000.0001) %MON dynstat_wvel_del2            =   1.0157961008767E-07
(PID.TID 0000.0001) %MON dynstat_theta_max            =   2.4974976889103E+01
(PID.TID 0000.0001) %MON dynstat_theta_min            =  -2.6215293239307E+00
(PID.TID 0000.0001) %MON dynstat_theta_mean           =   5.5817975541250E+00
(PID.TID 0000.0001) %MON dynstat_theta_sd             =   4.6740012661516E+00
(PID.TID 0000.0001) %MON dynstat_theta_del2           =   7.4053948834274E-06
(PID.TID 0000.0001) %MON dynstat_salt_max             =   8.9654215240416E+01
(PID.TID 0000.0001) %MON dynstat_salt_min             =   2.0158508833694E+00
(PID.TID 0000.0001) %MON dynstat_salt_mean            =   3.5191360192493E+01
(PID.TID 0000.0001) %MON dynstat_salt_sd              =   4.5279183673205E-01
(PID.TID 0000.0001) %MON dynstat_salt_del2            =   1.4711682312603E-06
(PID.TID 0000.0001) %MON dynstat_sst_max              =   2.4968476948287E+01
(PID.TID 0000.0001) %MON dynstat_sst_min              =  -2.6215293239307E+00
(PID.TID 0000.0001) %MON dynstat_sst_mean             =   1.7677420636181E+01
(PID.TID 0000.0001) %MON dynstat_sst_sd               =   3.3977995185433E+00
(PID.TID 0000.0001) %MON dynstat_sst_del2             =   8.8954716358857E-05
(PID.TID 0000.0001) %MON dynstat_sss_max              =   8.9654215240416E+01
(PID.TID 0000.0001) %MON dynstat_sss_min              =   2.0158508833694E+00
(PID.TID 0000.0001) %MON dynstat_sss_mean             =   3.6425732954299E+01
(PID.TID 0000.0001) %MON dynstat_sss_sd               =   4.5401275177938E-01
(PID.TID 0000.0001) %MON dynstat_sss_del2             =   1.6631400343791E-05
(PID.TID 0000.0001) %MON forcing_qnet_max             =   1.0605938562744E+03
(PID.TID 0000.0001) %MON forcing_qnet_min             =  -4.7465141142693E+02
(PID.TID 0000.0001) %MON forcing_qnet_mean            =   5.0455813970869E+01
(PID.TID 0000.0001) %MON forcing_qnet_sd              =   2.3895556407864E+02
(PID.TID 0000.0001) %MON forcing_qnet_del2            =   6.0888862374771E-03
(PID.TID 0000.0001) %MON forcing_qsw_max              =  -2.6571251654653E+01
(PID.TID 0000.0001) %MON forcing_qsw_min              =  -6.3509959697147E+02
(PID.TID 0000.0001) %MON forcing_qsw_mean             =  -2.8460016386041E+02
(PID.TID 0000.0001) %MON forcing_qsw_sd               =   1.1996656730248E+02
(PID.TID 0000.0001) %MON forcing_qsw_del2             =   2.0500814703460E-04
(PID.TID 0000.0001) %MON forcing_empmr_max            =   3.3935030946010E-04
(PID.TID 0000.0001) %MON forcing_empmr_min            =  -1.1229723410128E-03
(PID.TID 0000.0001) %MON forcing_empmr_mean           =   5.1287749164338E-05
(PID.TID 0000.0001) %MON forcing_empmr_sd             =   1.2780445745117E-04
(PID.TID 0000.0001) %MON forcing_empmr_del2           =   1.5780798485851E-09
(PID.TID 0000.0001) %MON forcing_fu_max               =   8.6240832028226E-01
(PID.TID 0000.0001) %MON forcing_fu_min               =  -2.1352837162192E-01
(PID.TID 0000.0001) %MON forcing_fu_mean              =   1.5839186125490E-01
(PID.TID 0000.0001) %MON forcing_fu_sd                =   1.8117574546842E-01
(PID.TID 0000.0001) %MON forcing_fu_del2              =   1.1281753374412E-06
(PID.TID 0000.0001) %MON forcing_fv_max               =   6.7164065759104E-01
(PID.TID 0000.0001) %MON forcing_fv_min               =  -8.6097177605848E-01
(PID.TID 0000.0001) %MON forcing_fv_mean              =  -5.9791082598400E-02
(PID.TID 0000.0001) %MON forcing_fv_sd                =   1.9747199271827E-01
(PID.TID 0000.0001) %MON forcing_fv_del2              =   9.5686387752179E-07
(PID.TID 0000.0001) %MON trAdv_CFL_u_max              =   9.8788477090718E-02
(PID.TID 0000.0001) %MON trAdv_CFL_v_max              =   9.6131854453987E-02
(PID.TID 0000.0001) %MON trAdv_CFL_w_max              =   3.6882290082908E-01
(PID.TID 0000.0001) %MON advcfl_uvel_max              =   9.8788476546497E-02
(PID.TID 0000.0001) %MON advcfl_vvel_max              =   9.6143293258596E-02
(PID.TID 0000.0001) %MON advcfl_wvel_max              =   3.6125561562028E-01
(PID.TID 0000.0001) %MON advcfl_W_hf_max              =   3.6882290082908E-01
(PID.TID 0000.0001) %MON pe_b_mean                    =   4.0598942988789E-03
(PID.TID 0000.0001) %MON ke_max                       =   4.6215873132113E+00
(PID.TID 0000.0001) %MON ke_mean                      =   8.2219677228495E-03
(PID.TID 0000.0001) %MON ke_vol                       =   4.6123795034297E+16
(PID.TID 0000.0001) %MON vort_r_min                   =  -1.7945242528767E-03
(PID.TID 0000.0001) %MON vort_r_max                   =   1.6731926720040E-03
(PID.TID 0000.0001) %MON vort_a_mean                  =   8.2145896354231E-05
(PID.TID 0000.0001) %MON vort_a_sd                    =   1.4073345507725E-05
(PID.TID 0000.0001) %MON vort_p_mean                  =   8.4437926927238E-05
(PID.TID 0000.0001) %MON vort_p_sd                    =   3.4034178003978E-05
(PID.TID 0000.0001) %MON surfExpan_theta_mean         =  -1.1265451593460E-03
(PID.TID 0000.0001) %MON surfExpan_salt_mean          =  -2.3756033652386E-03
(PID.TID 0000.0001) // =======================================================
(PID.TID 0000.0001) // End MONITOR dynamic field statistics
(PID.TID 0000.0001) // =======================================================
(PID.TID 0000.0001) // =======================================================
(PID.TID 0000.0001) // Begin OBCS MONITOR field statistics
(PID.TID 0000.0001) // =======================================================
(PID.TID 0000.0001) %MON obc_E_uVel_max               =   6.2466509881957E-01
(PID.TID 0000.0001) %MON obc_E_uVel_min               =   2.3785283742366E-01
(PID.TID 0000.0001) %MON obc_E_uVel_mean              =   4.5492155885361E-01
(PID.TID 0000.0001) %MON obc_E_uVel_sd                =   8.2554631166008E-02
(PID.TID 0000.0001) %MON obc_E_uVel_Int               =   3.1045898537276E+06
(PID.TID 0000.0001) %MON obc_N_vVel_max               =   1.9828987207765E-01
(PID.TID 0000.0001) %MON obc_N_vVel_min               =  -8.1326461856362E-01
(PID.TID 0000.0001) %MON obc_N_vVel_mean              =   4.6605231801551E-03
(PID.TID 0000.0001) %MON obc_N_vVel_sd                =   3.8825900193770E-02
(PID.TID 0000.0001) %MON obc_N_vVel_Int               =   6.6504009916329E+07
(PID.TID 0000.0001) %MON obc_S_vVel_max               =   1.2095744344014E+00
(PID.TID 0000.0001) %MON obc_S_vVel_min               =  -1.6749759112153E-01
(PID.TID 0000.0001) %MON obc_S_vVel_mean              =  -2.2102765994555E-02
(PID.TID 0000.0001) %MON obc_S_vVel_sd                =   2.8548200468583E-02
(PID.TID 0000.0001) %MON obc_S_vVel_Int               =  -6.7209735045770E+08
(PID.TID 0000.0001) %MON obc_E_theta_max              =   1.5981519699097E+01
(PID.TID 0000.0001) %MON obc_E_theta_min              =   1.3104037284851E+01
(PID.TID 0000.0001) %MON obc_E_theta_mean             =   1.4974089986960E+01
(PID.TID 0000.0001) %MON obc_E_theta_sd               =   6.0075505804650E-01
(PID.TID 0000.0001) %MON obc_N_theta_max              =   1.5721092224121E+01
(PID.TID 0000.0001) %MON obc_N_theta_min              =   9.7373789548874E-01
(PID.TID 0000.0001) %MON obc_N_theta_mean             =   5.3443110148828E+00
(PID.TID 0000.0001) %MON obc_N_theta_sd               =   3.5834807335781E+00
(PID.TID 0000.0001) %MON obc_S_theta_max              =   2.4979528427124E+01
(PID.TID 0000.0001) %MON obc_S_theta_min              =   1.5124862194061E+00
(PID.TID 0000.0001) %MON obc_S_theta_mean             =   5.4273114502690E+00
(PID.TID 0000.0001) %MON obc_S_theta_sd               =   5.1694562801555E+00
(PID.TID 0000.0001) %MON obc_E_salt_max               =   3.8703720092773E+01
(PID.TID 0000.0001) %MON obc_E_salt_min               =   3.6289142608643E+01
(PID.TID 0000.0001) %MON obc_E_salt_mean              =   3.6643778075730E+01
(PID.TID 0000.0001) %MON obc_E_salt_sd                =   5.5037722650442E-01
(PID.TID 0000.0001) %MON obc_N_salt_max               =   3.6066974639893E+01
(PID.TID 0000.0001) %MON obc_N_salt_min               =   3.2878395080566E+01
(PID.TID 0000.0001) %MON obc_N_salt_mean              =   3.5117165924185E+01
(PID.TID 0000.0001) %MON obc_N_salt_sd                =   3.1541903364831E-01
(PID.TID 0000.0001) %MON obc_S_salt_max               =   3.7600940704346E+01
(PID.TID 0000.0001) %MON obc_S_salt_min               =   3.4853485107422E+01
(PID.TID 0000.0001) %MON obc_S_salt_mean              =   3.5185630803177E+01
(PID.TID 0000.0001) %MON obc_S_salt_sd                =   4.9502018312198E-01
(PID.TID 0000.0001) // =======================================================
(PID.TID 0000.0001) // End OBCS MONITOR field statistics
(PID.TID 0000.0001) // =======================================================
(PID.TID 0000.0001) // =======================================================
(PID.TID 0000.0001) // Begin MONITOR ptracer field statistics
(PID.TID 0000.0001) // =======================================================
(PID.TID 0000.0001) %MON trcstat_ptracer01_max        =   0.0000000000000E+00
(PID.TID 0000.0001) %MON trcstat_ptracer01_min        =   0.0000000000000E+00
(PID.TID 0000.0001) %MON trcstat_ptracer01_mean       =   0.0000000000000E+00
(PID.TID 0000.0001) %MON trcstat_ptracer01_sd         =   0.0000000000000E+00
(PID.TID 0000.0001) %MON trcstat_ptracer01_del2       =   0.0000000000000E+00
(PID.TID 0000.0001) %MON trcstat_ptracer02_max        =   0.0000000000000E+00
(PID.TID 0000.0001) %MON trcstat_ptracer02_min        =   0.0000000000000E+00
(PID.TID 0000.0001) %MON trcstat_ptracer02_mean       =   0.0000000000000E+00
(PID.TID 0000.0001) %MON trcstat_ptracer02_sd         =   0.0000000000000E+00
(PID.TID 0000.0001) %MON trcstat_ptracer02_del2       =   0.0000000000000E+00
(PID.TID 0000.0001) // =======================================================
(PID.TID 0000.0001) // End MONITOR ptracer field statistics
(PID.TID 0000.0001) // =======================================================
(PID.TID 0000.0001) // =======================================================
(PID.TID 0000.0001) // Begin MONITOR EXF statistics
(PID.TID 0000.0001) // =======================================================
(PID.TID 0000.0001) %MON exf_tsnumber                 =              15813045
(PID.TID 0000.0001) %MON exf_time_sec                 =   1.2650436000000E+09
(PID.TID 0000.0001) %MON exf_ustress_max              =   8.6115064995769E-01
(PID.TID 0000.0001) %MON exf_ustress_min              =  -2.1491522616476E-01
(PID.TID 0000.0001) %MON exf_ustress_mean             =   1.5834443392269E-01
(PID.TID 0000.0001) %MON exf_ustress_sd               =   1.8129834361785E-01
(PID.TID 0000.0001) %MON exf_ustress_del2             =   1.2307572998977E-06
(PID.TID 0000.0001) %MON exf_vstress_max              =   6.7288297128277E-01
(PID.TID 0000.0001) %MON exf_vstress_min              =  -8.6364946363927E-01
(PID.TID 0000.0001) %MON exf_vstress_mean             =  -5.9840638979009E-02
(PID.TID 0000.0001) %MON exf_vstress_sd               =   1.9749869836519E-01
(PID.TID 0000.0001) %MON exf_vstress_del2             =   1.0646331989180E-06
(PID.TID 0000.0001) %MON exf_hflux_max                =   1.0368664812849E+03
(PID.TID 0000.0001) %MON exf_hflux_min                =  -4.7566853834408E+02
(PID.TID 0000.0001) %MON exf_hflux_mean               =   4.8111533054327E+01
(PID.TID 0000.0001) %MON exf_hflux_sd                 =   2.3519962886983E+02
(PID.TID 0000.0001) %MON exf_hflux_del2               =   7.4675919827249E-02
(PID.TID 0000.0001) %MON exf_sflux_max                =   3.3963194951117E-07
(PID.TID 0000.0001) %MON exf_sflux_min                =  -1.1118309565270E-06
(PID.TID 0000.0001) %MON exf_sflux_mean               =   5.1359875588140E-08
(PID.TID 0000.0001) %MON exf_sflux_sd                 =   1.2758586203829E-07
(PID.TID 0000.0001) %MON exf_sflux_del2               =   4.2477172447767E-11
(PID.TID 0000.0001) %MON exf_uwind_max                =   1.9496596611840E+01
(PID.TID 0000.0001) %MON exf_uwind_min                =  -8.4807624128421E+00
(PID.TID 0000.0001) %MON exf_uwind_mean               =   6.3154505217166E+00
(PID.TID 0000.0001) %MON exf_uwind_sd                 =   5.7124153839646E+00
(PID.TID 0000.0001) %MON exf_uwind_del2               =   2.6353192118203E-03
(PID.TID 0000.0001) %MON exf_vwind_max                =   1.7684687675703E+01
(PID.TID 0000.0001) %MON exf_vwind_min                =  -1.8685083542770E+01
(PID.TID 0000.0001) %MON exf_vwind_mean               =  -2.3091813236012E+00
(PID.TID 0000.0001) %MON exf_vwind_sd                 =   7.7960275433764E+00
(PID.TID 0000.0001) %MON exf_vwind_del2               =   2.5058900064323E-03
(PID.TID 0000.0001) %MON exf_wspeed_max               =   2.1107094037985E+01
(PID.TID 0000.0001) %MON exf_wspeed_min               =   2.8037602240303E-02
(PID.TID 0000.0001) %MON exf_wspeed_mean              =   1.0960954394446E+01
(PID.TID 0000.0001) %MON exf_wspeed_sd                =   4.2993543022675E+00
(PID.TID 0000.0001) %MON exf_wspeed_del2              =   3.6363176259777E-03
(PID.TID 0000.0001) %MON exf_atemp_max                =   2.9666498523671E+02
(PID.TID 0000.0001) %MON exf_atemp_min                =   2.7050386807641E+02
(PID.TID 0000.0001) %MON exf_atemp_mean               =   2.8858128745149E+02
(PID.TID 0000.0001) %MON exf_atemp_sd                 =   4.2114318671660E+00
(PID.TID 0000.0001) %MON exf_atemp_del2               =   4.8444624341902E-03
(PID.TID 0000.0001) %MON exf_aqh_max                  =   1.4648670724688E-02
(PID.TID 0000.0001) %MON exf_aqh_min                  =   2.0052547843671E-03
(PID.TID 0000.0001) %MON exf_aqh_mean                 =   7.8561819328384E-03
(PID.TID 0000.0001) %MON exf_aqh_sd                   =   2.3957551132846E-03
(PID.TID 0000.0001) %MON exf_aqh_del2                 =   2.4921111288471E-06
(PID.TID 0000.0001) %MON exf_lwflux_max               =   1.5033350659412E+02
(PID.TID 0000.0001) %MON exf_lwflux_min               =   3.3356845007101E+00
(PID.TID 0000.0001) %MON exf_lwflux_mean              =   6.5070639072851E+01
(PID.TID 0000.0001) %MON exf_lwflux_sd                =   2.1251882187321E+01
(PID.TID 0000.0001) %MON exf_lwflux_del2              =   2.1067053473502E-02
(PID.TID 0000.0001) %MON exf_evap_max                 =   3.5400370948539E-07
(PID.TID 0000.0001) %MON exf_evap_min                 =  -1.5183003607446E-08
(PID.TID 0000.0001) %MON exf_evap_mean                =   8.8616233127666E-08
(PID.TID 0000.0001) %MON exf_evap_sd                  =   5.8380906779135E-08
(PID.TID 0000.0001) %MON exf_evap_del2                =   3.2746979469645E-11
(PID.TID 0000.0001) %MON exf_precip_max               =   1.1463227156386E-06
(PID.TID 0000.0001) %MON exf_precip_min               =   0.0000000000000E+00
(PID.TID 0000.0001) %MON exf_precip_mean              =   3.5649312905057E-08
(PID.TID 0000.0001) %MON exf_precip_sd                =   1.0589057715559E-07
(PID.TID 0000.0001) %MON exf_precip_del2              =   3.4564622666816E-11
(PID.TID 0000.0001) %MON exf_swflux_max               =  -2.6441941456386E+01
(PID.TID 0000.0001) %MON exf_swflux_min               =  -6.3583231010313E+02
(PID.TID 0000.0001) %MON exf_swflux_mean              =  -2.8298244439945E+02
(PID.TID 0000.0001) %MON exf_swflux_sd                =   1.2028542008680E+02
(PID.TID 0000.0001) %MON exf_swflux_del2              =   9.3252730795778E-02
(PID.TID 0000.0001) %MON exf_swdown_max               =   6.9700001981593E+02
(PID.TID 0000.0001) %MON exf_swdown_min               =   2.8943776540485E+01
(PID.TID 0000.0001) %MON exf_swdown_mean              =   3.1173033298479E+02
(PID.TID 0000.0001) %MON exf_swdown_sd                =   1.3195438108989E+02
(PID.TID 0000.0001) %MON exf_swdown_del2              =   1.0270063578477E-01
(PID.TID 0000.0001) %MON exf_lwdown_max               =   4.1130316356168E+02
(PID.TID 0000.0001) %MON exf_lwdown_min               =   2.2908135348074E+02
(PID.TID 0000.0001) %MON exf_lwdown_mean              =   3.3887085090488E+02
(PID.TID 0000.0001) %MON exf_lwdown_sd                =   3.2194762369407E+01
(PID.TID 0000.0001) %MON exf_lwdown_del2              =   1.0368444276382E-01
(PID.TID 0000.0001) %MON exf_apressure_max            =   1.0282648397631E+05
(PID.TID 0000.0001) %MON exf_apressure_min            =   9.8206171315219E+04
(PID.TID 0000.0001) %MON exf_apressure_mean           =   1.0136639447375E+05
(PID.TID 0000.0001) %MON exf_apressure_sd             =   1.1010562771253E+03
(PID.TID 0000.0001) %MON exf_apressure_del2           =   3.0974797027136E+01
(PID.TID 0000.0001) %MON exf_runoff_max               =   4.6633690723924E-08
(PID.TID 0000.0001) %MON exf_runoff_min               =   0.0000000000000E+00
(PID.TID 0000.0001) %MON exf_runoff_mean              =   1.6070446344693E-09
(PID.TID 0000.0001) %MON exf_runoff_sd                =   5.4409705936606E-09
(PID.TID 0000.0001) %MON exf_runoff_del2              =   1.7602788524736E-12
(PID.TID 0000.0001) // =======================================================
(PID.TID 0000.0001) // End MONITOR EXF statistics
(PID.TID 0000.0001) // =======================================================
 cg2d: Sum(rhs),rhsMax =  -4.11495409052005E+04  5.02540304069672E-02
 cg2d: Sum(rhs),rhsMax =  -3.97632630693007E+04  5.09581996325560E-02
 cg2d: Sum(rhs),rhsMax =  -3.83745227623760E+04  5.16568890740004E-02
 cg2d: Sum(rhs),rhsMax =  -3.69834989177669E+04  5.23503680030517E-02
 cg2d: Sum(rhs),rhsMax =  -3.55903708205867E+04  5.30388915555373E-02
 cg2d: Sum(rhs),rhsMax =  -3.41953180845188E+04  5.37227102796245E-02
 cg2d: Sum(rhs),rhsMax =  -3.27985206285637E+04  5.44020745194713E-02
 cg2d: Sum(rhs),rhsMax =  -3.14001586537247E+04  5.50772329162531E-02
 cg2d: Sum(rhs),rhsMax =  -3.00004126196504E+04  5.57484280569763E-02
 cg2d: Sum(rhs),rhsMax =  -2.85994632211994E+04  5.64158864151451E-02
 cg2d: Sum(rhs),rhsMax =  -2.71974913649875E+04  5.70798202575071E-02
 cg2d: Sum(rhs),rhsMax =  -2.57946781458691E+04  5.77404227987593E-02
 cg2d: Sum(rhs),rhsMax =  -2.43912048233833E+04  5.83978549643902E-02
 cg2d: Sum(rhs),rhsMax =  -2.29872527981587E+04  5.90522456793518E-02
 cg2d: Sum(rhs),rhsMax =  -2.15830035882915E+04  5.97036985832335E-02
 cg2d: Sum(rhs),rhsMax =  -2.01786388056703E+04  6.03522917256976E-02
 cg2d: Sum(rhs),rhsMax =  -1.87743401322940E+04  6.09980816704490E-02
 cg2d: Sum(rhs),rhsMax =  -1.73702892965506E+04  6.16410914365779E-02
 cg2d: Sum(rhs),rhsMax =  -1.59666680494756E+04  6.22813064092892E-02
 cg2d: Sum(rhs),rhsMax =  -1.45636581409888E+04  6.29186759283933E-02
 cg2d: Sum(rhs),rhsMax =  -1.31614412961240E+04  6.35531157598820E-02
 cg2d: Sum(rhs),rhsMax =  -1.17601991912254E+04  6.41845111572492E-02
 cg2d: Sum(rhs),rhsMax =  -1.03601134301554E+04  6.48127202662669E-02
 cg2d: Sum(rhs),rhsMax =  -8.96136552048249E+03  6.54375758973980E-02
 cg2d: Sum(rhs),rhsMax =  -7.56413684966915E+03  6.60588867365557E-02
 cg2d: Sum(rhs),rhsMax =  -6.16860866125747E+03  6.66764380319056E-02
 cg2d: Sum(rhs),rhsMax =  -4.77496203106620E+03  6.72899916347383E-02
 cg2d: Sum(rhs),rhsMax =  -3.38337784337534E+03  6.78992854349127E-02
 cg2d: Sum(rhs),rhsMax =  -1.99403676714138E+03  6.85040323775040E-02
 cg2d: Sum(rhs),rhsMax =  -6.07119232212345E+02  6.91039194667361E-02
 cg2d: Sum(rhs),rhsMax =   7.77194594437550E+02  6.96986063832012E-02
 cg2d: Sum(rhs),rhsMax =   2.15872483245681E+03  7.02877260360041E-02
 cg2d: Sum(rhs),rhsMax =   3.53729191183245E+03  7.08708875610308E-02
 cg2d: Sum(rhs),rhsMax =   4.91271659659730E+03  7.14476799670708E-02
 cg2d: Sum(rhs),rhsMax =   6.28482000849285E+03  7.20176763055996E-02
 cg2d: Sum(rhs),rhsMax =   7.65342365060441E+03  7.25804386499143E-02
 cg2d: Sum(rhs),rhsMax =   9.01834943096438E+03  7.31355239769418E-02
 cg2d: Sum(rhs),rhsMax =   1.03794196861111E+04  7.36824907391926E-02
 cg2d: Sum(rhs),rhsMax =   1.17364572046038E+04  7.42209058329493E-02
 cg2d: Sum(rhs),rhsMax =   1.30892852505005E+04  7.47503516842465E-02
 cg2d: Sum(rhs),rhsMax =   1.44377275867775E+04  7.52704332353857E-02
 cg2d: Sum(rhs),rhsMax =   1.57816084986983E+04  7.57807846695901E-02
 cg2d: Sum(rhs),rhsMax =   1.71207528171317E+04  7.62810757073882E-02
 cg2d: Sum(rhs),rhsMax =   1.84549859418065E+04  7.67710171231933E-02
 cg2d: Sum(rhs),rhsMax =   1.97841338644996E+04  7.72503651301198E-02
(PID.TID 0000.0001)      cg2d_init_res =   1.12358983558792E+00
(PID.TID 0000.0001)      cg2d_iters(min,last) =      -1     154
(PID.TID 0000.0001)      cg2d_last_res =   1.88281911764293E-11
(PID.TID 0000.0001) // =======================================================
(PID.TID 0000.0001) // Begin MONITOR dynamic field statistics
(PID.TID 0000.0001) // =======================================================
(PID.TID 0000.0001) %MON time_tsnumber                =              15813090
(PID.TID 0000.0001) %MON time_secondsf                =   1.2650472000000E+09
(PID.TID 0000.0001) %MON dynstat_eta_max              =   9.9688994997056E-01
(PID.TID 0000.0001) %MON dynstat_eta_min              =  -1.3331610526942E+00
(PID.TID 0000.0001) %MON dynstat_eta_mean             =  -7.4768541914405E-02
(PID.TID 0000.0001) %MON dynstat_eta_sd               =   3.2438182560439E-01
(PID.TID 0000.0001) %MON dynstat_eta_del2             =   1.1776378292018E-06
(PID.TID 0000.0001) %MON dynstat_uvel_max             =   2.9833330441424E+00
(PID.TID 0000.0001) %MON dynstat_uvel_min             =  -2.9032583214693E+00
(PID.TID 0000.0001) %MON dynstat_uvel_mean            =  -3.7486774102595E-03
(PID.TID 0000.0001) %MON dynstat_uvel_sd              =   9.4441728982468E-02
(PID.TID 0000.0001) %MON dynstat_uvel_del2            =   1.9814430976161E-06
(PID.TID 0000.0001) %MON dynstat_vvel_max             =   2.7942632106288E+00
(PID.TID 0000.0001) %MON dynstat_vvel_min             =  -2.7067577753941E+00
(PID.TID 0000.0001) %MON dynstat_vvel_mean            =  -1.5316334051755E-02
(PID.TID 0000.0001) %MON dynstat_vvel_sd              =   8.6787624741278E-02
(PID.TID 0000.0001) %MON dynstat_vvel_del2            =   1.8746300469509E-06
(PID.TID 0000.0001) %MON dynstat_wvel_max             =   3.4375876451680E-02
(PID.TID 0000.0001) %MON dynstat_wvel_min             =  -3.4100777731302E-02
(PID.TID 0000.0001) %MON dynstat_wvel_mean            =  -3.9717927595317E-05
(PID.TID 0000.0001) %MON dynstat_wvel_sd              =   1.6809024347836E-03
(PID.TID 0000.0001) %MON dynstat_wvel_del2            =   1.0122809433504E-07
(PID.TID 0000.0001) %MON dynstat_theta_max            =   2.4976000465735E+01
(PID.TID 0000.0001) %MON dynstat_theta_min            =  -2.5439345153381E+00
(PID.TID 0000.0001) %MON dynstat_theta_mean           =   5.5824521627583E+00
(PID.TID 0000.0001) %MON dynstat_theta_sd             =   4.6746948819583E+00
(PID.TID 0000.0001) %MON dynstat_theta_del2           =   7.3967155946461E-06
(PID.TID 0000.0001) %MON dynstat_salt_max             =   8.9656609176222E+01
(PID.TID 0000.0001) %MON dynstat_salt_min             =   2.0158546210811E+00
(PID.TID 0000.0001) %MON dynstat_salt_mean            =   3.5191430215153E+01
(PID.TID 0000.0001) %MON dynstat_salt_sd              =   4.5288397437318E-01
(PID.TID 0000.0001) %MON dynstat_salt_del2            =   1.4716340248174E-06
(PID.TID 0000.0001) %MON dynstat_sst_max              =   2.4969653931218E+01
(PID.TID 0000.0001) %MON dynstat_sst_min              =  -2.5439345153381E+00
(PID.TID 0000.0001) %MON dynstat_sst_mean             =   1.7674075684815E+01
(PID.TID 0000.0001) %MON dynstat_sst_sd               =   3.3989394669256E+00
(PID.TID 0000.0001) %MON dynstat_sst_del2             =   8.9268908521689E-05
(PID.TID 0000.0001) %MON dynstat_sss_max              =   8.9656609176222E+01
(PID.TID 0000.0001) %MON dynstat_sss_min              =   2.0158546210811E+00
(PID.TID 0000.0001) %MON dynstat_sss_mean             =   3.6425809241204E+01
(PID.TID 0000.0001) %MON dynstat_sss_sd               =   4.5394605786522E-01
(PID.TID 0000.0001) %MON dynstat_sss_del2             =   1.6600148827836E-05
(PID.TID 0000.0001) %MON forcing_qnet_max             =   1.0795157293351E+03
(PID.TID 0000.0001) %MON forcing_qnet_min             =  -4.7665739075855E+02
(PID.TID 0000.0001) %MON forcing_qnet_mean            =   1.2501299685658E+02
(PID.TID 0000.0001) %MON forcing_qnet_sd              =   2.2802630715786E+02
(PID.TID 0000.0001) %MON forcing_qnet_del2            =   6.0747504939582E-03
(PID.TID 0000.0001) %MON forcing_qsw_max              =  -3.1932660228106E+00
(PID.TID 0000.0001) %MON forcing_qsw_min              =  -6.3898452974602E+02
(PID.TID 0000.0001) %MON forcing_qsw_mean             =  -2.0784256950828E+02
(PID.TID 0000.0001) %MON forcing_qsw_sd               =   1.2834500562635E+02
(PID.TID 0000.0001) %MON forcing_qsw_del2             =   1.5808327589504E-04
(PID.TID 0000.0001) %MON forcing_empmr_max            =   3.1855319553645E-04
(PID.TID 0000.0001) %MON forcing_empmr_min            =  -1.0183754013462E-03
(PID.TID 0000.0001) %MON forcing_empmr_mean           =   5.3651822104792E-05
(PID.TID 0000.0001) %MON forcing_empmr_sd             =   1.1633000221597E-04
(PID.TID 0000.0001) %MON forcing_empmr_del2           =   1.5608868838721E-09
(PID.TID 0000.0001) %MON forcing_fu_max               =   1.0009354198022E+00
(PID.TID 0000.0001) %MON forcing_fu_min               =  -2.0895647313420E-01
(PID.TID 0000.0001) %MON forcing_fu_mean              =   1.5392593306250E-01
(PID.TID 0000.0001) %MON forcing_fu_sd                =   1.8033038745019E-01
(PID.TID 0000.0001) %MON forcing_fu_del2              =   1.1224740661869E-06
(PID.TID 0000.0001) %MON forcing_fv_max               =   6.6134920195829E-01
(PID.TID 0000.0001) %MON forcing_fv_min               =  -7.9039562753217E-01
(PID.TID 0000.0001) %MON forcing_fv_mean              =  -6.1998082220685E-02
(PID.TID 0000.0001) %MON forcing_fv_sd                =   1.8973985964471E-01
(PID.TID 0000.0001) %MON forcing_fv_del2              =   9.3503958511584E-07
(PID.TID 0000.0001) %MON trAdv_CFL_u_max              =   1.1042963403579E-01
(PID.TID 0000.0001) %MON trAdv_CFL_v_max              =   9.6500583691547E-02
(PID.TID 0000.0001) %MON trAdv_CFL_w_max              =   3.3405567190795E-01
(PID.TID 0000.0001) %MON advcfl_uvel_max              =   1.1042963342746E-01
(PID.TID 0000.0001) %MON advcfl_vvel_max              =   9.6512093729984E-02
(PID.TID 0000.0001) %MON advcfl_wvel_max              =   3.2778751079521E-01
(PID.TID 0000.0001) %MON advcfl_W_hf_max              =   3.3405567190795E-01
(PID.TID 0000.0001) %MON pe_b_mean                    =  -1.7139617011143E-03
(PID.TID 0000.0001) %MON ke_max                       =   4.7718640237662E+00
(PID.TID 0000.0001) %MON ke_mean                      =   8.3048840952240E-03
(PID.TID 0000.0001) %MON ke_vol                       =   4.6123795034297E+16
(PID.TID 0000.0001) %MON vort_r_min                   =  -2.2023723869420E-03
(PID.TID 0000.0001) %MON vort_r_max                   =   1.9178621265539E-03
(PID.TID 0000.0001) %MON vort_a_mean                  =   8.2145894855932E-05
(PID.TID 0000.0001) %MON vort_a_sd                    =   1.4102875556433E-05
(PID.TID 0000.0001) %MON vort_p_mean                  =   8.4437925387134E-05
(PID.TID 0000.0001) %MON vort_p_sd                    =   3.4098629434356E-05
(PID.TID 0000.0001) %MON surfExpan_theta_mean         =  -1.0535611377055E-03
(PID.TID 0000.0001) %MON surfExpan_salt_mean          =  -2.2846754705653E-03
(PID.TID 0000.0001) // =======================================================
(PID.TID 0000.0001) // End MONITOR dynamic field statistics
(PID.TID 0000.0001) // =======================================================
(PID.TID 0000.0001) // =======================================================
(PID.TID 0000.0001) // Begin OBCS MONITOR field statistics
(PID.TID 0000.0001) // =======================================================
(PID.TID 0000.0001) %MON obc_E_uVel_max               =   6.6364666467191E-01
(PID.TID 0000.0001) %MON obc_E_uVel_min               =   2.5882323487267E-01
(PID.TID 0000.0001) %MON obc_E_uVel_mean              =   4.7564735487096E-01
(PID.TID 0000.0001) %MON obc_E_uVel_sd                =   8.6363504103506E-02
(PID.TID 0000.0001) %MON obc_E_uVel_Int               =   3.2460320315573E+06
(PID.TID 0000.0001) %MON obc_N_vVel_max               =   2.0727462604650E-01
(PID.TID 0000.0001) %MON obc_N_vVel_min               =  -1.0066589056305E+00
(PID.TID 0000.0001) %MON obc_N_vVel_mean              =  -1.6195755593333E-03
(PID.TID 0000.0001) %MON obc_N_vVel_sd                =   3.9189556862810E-02
(PID.TID 0000.0001) %MON obc_N_vVel_Int               =  -2.3110767803232E+07
(PID.TID 0000.0001) %MON obc_S_vVel_max               =   1.2220964755249E+00
(PID.TID 0000.0001) %MON obc_S_vVel_min               =  -1.7575480944618E-01
(PID.TID 0000.0001) %MON obc_S_vVel_mean              =  -2.4132471827281E-02
(PID.TID 0000.0001) %MON obc_S_vVel_sd                =   2.9933720332204E-02
(PID.TID 0000.0001) %MON obc_S_vVel_Int               =  -7.3381631869541E+08
(PID.TID 0000.0001) %MON obc_E_theta_max              =   1.5981519699097E+01
(PID.TID 0000.0001) %MON obc_E_theta_min              =   1.3104037284851E+01
(PID.TID 0000.0001) %MON obc_E_theta_mean             =   1.4974089986960E+01
(PID.TID 0000.0001) %MON obc_E_theta_sd               =   6.0075505804650E-01
(PID.TID 0000.0001) %MON obc_N_theta_max              =   1.5721092224121E+01
(PID.TID 0000.0001) %MON obc_N_theta_min              =   9.7373789548874E-01
(PID.TID 0000.0001) %MON obc_N_theta_mean             =   5.3443110148828E+00
(PID.TID 0000.0001) %MON obc_N_theta_sd               =   3.5834807335781E+00
(PID.TID 0000.0001) %MON obc_S_theta_max              =   2.4979528427124E+01
(PID.TID 0000.0001) %MON obc_S_theta_min              =   1.5124862194061E+00
(PID.TID 0000.0001) %MON obc_S_theta_mean             =   5.4273114502690E+00
(PID.TID 0000.0001) %MON obc_S_theta_sd               =   5.1694562801555E+00
(PID.TID 0000.0001) %MON obc_E_salt_max               =   3.8703720092773E+01
(PID.TID 0000.0001) %MON obc_E_salt_min               =   3.6289142608643E+01
(PID.TID 0000.0001) %MON obc_E_salt_mean              =   3.6643778075730E+01
(PID.TID 0000.0001) %MON obc_E_salt_sd                =   5.5037722650442E-01
(PID.TID 0000.0001) %MON obc_N_salt_max               =   3.6066974639893E+01
(PID.TID 0000.0001) %MON obc_N_salt_min               =   3.2878395080566E+01
(PID.TID 0000.0001) %MON obc_N_salt_mean              =   3.5117165924185E+01
(PID.TID 0000.0001) %MON obc_N_salt_sd                =   3.1541903364831E-01
(PID.TID 0000.0001) %MON obc_S_salt_max               =   3.7600940704346E+01
(PID.TID 0000.0001) %MON obc_S_salt_min               =   3.4853485107422E+01
(PID.TID 0000.0001) %MON obc_S_salt_mean              =   3.5185630803177E+01
(PID.TID 0000.0001) %MON obc_S_salt_sd                =   4.9502018312198E-01
(PID.TID 0000.0001) // =======================================================
(PID.TID 0000.0001) // End OBCS MONITOR field statistics
(PID.TID 0000.0001) // =======================================================
(PID.TID 0000.0001) // =======================================================
(PID.TID 0000.0001) // Begin MONITOR ptracer field statistics
(PID.TID 0000.0001) // =======================================================
(PID.TID 0000.0001) %MON trcstat_ptracer01_max        =   0.0000000000000E+00
(PID.TID 0000.0001) %MON trcstat_ptracer01_min        =   0.0000000000000E+00
(PID.TID 0000.0001) %MON trcstat_ptracer01_mean       =   0.0000000000000E+00
(PID.TID 0000.0001) %MON trcstat_ptracer01_sd         =   0.0000000000000E+00
(PID.TID 0000.0001) %MON trcstat_ptracer01_del2       =   0.0000000000000E+00
(PID.TID 0000.0001) %MON trcstat_ptracer02_max        =   0.0000000000000E+00
(PID.TID 0000.0001) %MON trcstat_ptracer02_min        =   0.0000000000000E+00
(PID.TID 0000.0001) %MON trcstat_ptracer02_mean       =   0.0000000000000E+00
(PID.TID 0000.0001) %MON trcstat_ptracer02_sd         =   0.0000000000000E+00
(PID.TID 0000.0001) %MON trcstat_ptracer02_del2       =   0.0000000000000E+00
(PID.TID 0000.0001) // =======================================================
(PID.TID 0000.0001) // End MONITOR ptracer field statistics
(PID.TID 0000.0001) // =======================================================
(PID.TID 0000.0001) // =======================================================
(PID.TID 0000.0001) // Begin MONITOR EXF statistics
(PID.TID 0000.0001) // =======================================================
(PID.TID 0000.0001) %MON exf_tsnumber                 =              15813090
(PID.TID 0000.0001) %MON exf_time_sec                 =   1.2650472000000E+09
(PID.TID 0000.0001) %MON exf_ustress_max              =   1.0049038649392E+00
(PID.TID 0000.0001) %MON exf_ustress_min              =  -2.0908856224165E-01
(PID.TID 0000.0001) %MON exf_ustress_mean             =   1.5383162000487E-01
(PID.TID 0000.0001) %MON exf_ustress_sd               =   1.8041097715534E-01
(PID.TID 0000.0001) %MON exf_ustress_del2             =   1.2256091708331E-06
(PID.TID 0000.0001) %MON exf_vstress_max              =   6.6337149936730E-01
(PID.TID 0000.0001) %MON exf_vstress_min              =  -7.9254121691415E-01
(PID.TID 0000.0001) %MON exf_vstress_mean             =  -6.2025288287557E-02
(PID.TID 0000.0001) %MON exf_vstress_sd               =   1.8972202071088E-01
(PID.TID 0000.0001) %MON exf_vstress_del2             =   1.0421004850767E-06
(PID.TID 0000.0001) %MON exf_hflux_max                =   1.0579586987466E+03
(PID.TID 0000.0001) %MON exf_hflux_min                =  -4.7628381999757E+02
(PID.TID 0000.0001) %MON exf_hflux_mean               =   1.2266487945930E+02
(PID.TID 0000.0001) %MON exf_hflux_sd                 =   2.2424803409662E+02
(PID.TID 0000.0001) %MON exf_hflux_del2               =   7.9812712136697E-02
(PID.TID 0000.0001) %MON exf_sflux_max                =   3.1794758266848E-07
(PID.TID 0000.0001) %MON exf_sflux_min                =  -1.0142837102879E-06
(PID.TID 0000.0001) %MON exf_sflux_mean               =   5.3721753378890E-08
(PID.TID 0000.0001) %MON exf_sflux_sd                 =   1.1598856215335E-07
(PID.TID 0000.0001) %MON exf_sflux_del2               =   3.9376937259419E-11
(PID.TID 0000.0001) %MON exf_uwind_max                =   2.0609269537969E+01
(PID.TID 0000.0001) %MON exf_uwind_min                =  -8.4677674867438E+00
(PID.TID 0000.0001) %MON exf_uwind_mean               =   6.1675785364260E+00
(PID.TID 0000.0001) %MON exf_uwind_sd                 =   5.7849747986135E+00
(PID.TID 0000.0001) %MON exf_uwind_del2               =   2.6177530447965E-03
(PID.TID 0000.0001) %MON exf_vwind_max                =   1.7303275894136E+01
(PID.TID 0000.0001) %MON exf_vwind_min                =  -1.7984214851840E+01
(PID.TID 0000.0001) %MON exf_vwind_mean               =  -2.4453453654276E+00
(PID.TID 0000.0001) %MON exf_vwind_sd                 =   7.6756299412356E+00
(PID.TID 0000.0001) %MON exf_vwind_del2               =   2.4819435766022E-03
(PID.TID 0000.0001) %MON exf_wspeed_max               =   2.0851259973928E+01
(PID.TID 0000.0001) %MON exf_wspeed_min               =   7.3314536472273E-03
(PID.TID 0000.0001) %MON exf_wspeed_mean              =   1.0872438564056E+01
(PID.TID 0000.0001) %MON exf_wspeed_sd                =   4.2649791377477E+00
(PID.TID 0000.0001) %MON exf_wspeed_del2              =   3.6070894522834E-03
(PID.TID 0000.0001) %MON exf_atemp_max                =   2.9667314910896E+02
(PID.TID 0000.0001) %MON exf_atemp_min                =   2.7107783031634E+02
(PID.TID 0000.0001) %MON exf_atemp_mean               =   2.8862878700437E+02
(PID.TID 0000.0001) %MON exf_atemp_sd                 =   4.1151381931588E+00
(PID.TID 0000.0001) %MON exf_atemp_del2               =   4.8508666585451E-03
(PID.TID 0000.0001) %MON exf_aqh_max                  =   1.4576881472638E-02
(PID.TID 0000.0001) %MON exf_aqh_min                  =   2.1020626991179E-03
(PID.TID 0000.0001) %MON exf_aqh_mean                 =   7.8403003329197E-03
(PID.TID 0000.0001) %MON exf_aqh_sd                   =   2.3400326667528E-03
(PID.TID 0000.0001) %MON exf_aqh_del2                 =   2.4826472979165E-06
(PID.TID 0000.0001) %MON exf_lwflux_max               =   1.4870625814974E+02
(PID.TID 0000.0001) %MON exf_lwflux_min               =   2.3966977872655E+00
(PID.TID 0000.0001) %MON exf_lwflux_mean              =   6.4981084459107E+01
(PID.TID 0000.0001) %MON exf_lwflux_sd                =   2.0616277595934E+01
(PID.TID 0000.0001) %MON exf_lwflux_del2              =   2.0971279368985E-02
(PID.TID 0000.0001) %MON exf_evap_max                 =   3.3588338088197E-07
(PID.TID 0000.0001) %MON exf_evap_min                 =  -1.6602048739046E-08
(PID.TID 0000.0001) %MON exf_evap_mean                =   8.8187609478190E-08
(PID.TID 0000.0001) %MON exf_evap_sd                  =   5.7500984492875E-08
(PID.TID 0000.0001) %MON exf_evap_del2                =   3.2492933844399E-11
(PID.TID 0000.0001) %MON exf_precip_max               =   1.0288431386705E-06
(PID.TID 0000.0001) %MON exf_precip_min               =   0.0000000000000E+00
(PID.TID 0000.0001) %MON exf_precip_mean              =   3.2858811464830E-08
(PID.TID 0000.0001) %MON exf_precip_sd                =   9.2825431540070E-08
(PID.TID 0000.0001) %MON exf_precip_del2              =   3.0348628508331E-11
(PID.TID 0000.0001) %MON exf_swflux_max               =  -3.0811881031876E+00
(PID.TID 0000.0001) %MON exf_swflux_min               =  -6.3843729918401E+02
(PID.TID 0000.0001) %MON exf_swflux_mean              =  -2.0604065384624E+02
(PID.TID 0000.0001) %MON exf_swflux_sd                =   1.2832837301462E+02
(PID.TID 0000.0001) %MON exf_swflux_del2              =   7.3537054501976E-02
(PID.TID 0000.0001) %MON exf_swdown_max               =   7.0013637654341E+02
(PID.TID 0000.0001) %MON exf_swdown_min               =   3.3765940936769E+00
(PID.TID 0000.0001) %MON exf_swdown_mean              =   2.2691470091584E+02
(PID.TID 0000.0001) %MON exf_swdown_sd                =   1.4105580925161E+02
(PID.TID 0000.0001) %MON exf_swdown_del2              =   8.0974096748872E-02
(PID.TID 0000.0001) %MON exf_lwdown_max               =   4.1586790479949E+02
(PID.TID 0000.0001) %MON exf_lwdown_min               =   2.3528116324935E+02
(PID.TID 0000.0001) %MON exf_lwdown_mean              =   3.3894473927956E+02
(PID.TID 0000.0001) %MON exf_lwdown_sd                =   3.1689057803532E+01
(PID.TID 0000.0001) %MON exf_lwdown_del2              =   1.0369771420844E-01
(PID.TID 0000.0001) %MON exf_apressure_max            =   1.0276371004734E+05
(PID.TID 0000.0001) %MON exf_apressure_min            =   9.8283130654594E+04
(PID.TID 0000.0001) %MON exf_apressure_mean           =   1.0138548751200E+05
(PID.TID 0000.0001) %MON exf_apressure_sd             =   1.0666269139406E+03
(PID.TID 0000.0001) %MON exf_apressure_del2           =   3.0980988284115E+01
(PID.TID 0000.0001) %MON exf_runoff_max               =   4.6633690723924E-08
(PID.TID 0000.0001) %MON exf_runoff_min               =   0.0000000000000E+00
(PID.TID 0000.0001) %MON exf_runoff_mean              =   1.6070446344693E-09
(PID.TID 0000.0001) %MON exf_runoff_sd                =   5.4409705936606E-09
(PID.TID 0000.0001) %MON exf_runoff_del2              =   1.7602788524736E-12
(PID.TID 0000.0001) // =======================================================
(PID.TID 0000.0001) // End MONITOR EXF statistics
(PID.TID 0000.0001) // =======================================================
 cg2d: Sum(rhs),rhsMax =   2.11080231921706E+04  7.77189242354363E-02
 cg2d: Sum(rhs),rhsMax =   2.24264811700140E+04  7.81765744741656E-02
 cg2d: Sum(rhs),rhsMax =   2.37393357044466E+04  7.86232342573668E-02
 cg2d: Sum(rhs),rhsMax =   2.50464153860172E+04  7.90588592897435E-02
 cg2d: Sum(rhs),rhsMax =   2.63475495122404E+04  7.94834416335378E-02
 cg2d: Sum(rhs),rhsMax =   2.76425681103374E+04  7.98970072235415E-02
 cg2d: Sum(rhs),rhsMax =   2.89313019599105E+04  8.02996112459557E-02
 cg2d: Sum(rhs),rhsMax =   3.02135826155055E+04  8.06913317294208E-02
 cg2d: Sum(rhs),rhsMax =   3.14892424291019E+04  8.10722621783413E-02
 cg2d: Sum(rhs),rhsMax =   3.27581145724955E+04  8.14425042544454E-02
 cg2d: Sum(rhs),rhsMax =   3.40200330595925E+04  8.18021612577698E-02
 cg2d: Sum(rhs),rhsMax =   3.52748327685846E+04  8.21513328044369E-02
 cg2d: Sum(rhs),rhsMax =   3.65223494640450E+04  8.24901107452623E-02
 cg2d: Sum(rhs),rhsMax =   3.77624198188888E+04  8.28185761708191E-02
 cg2d: Sum(rhs),rhsMax =   3.89948814362419E+04  8.31367972905793E-02
 cg2d: Sum(rhs),rhsMax =   4.02195728711847E+04  8.34448280438191E-02
 cg2d: Sum(rhs),rhsMax =   4.14363336523869E+04  8.37427074385749E-02
 cg2d: Sum(rhs),rhsMax =   4.26450043036042E+04  8.40304597111136E-02
 cg2d: Sum(rhs),rhsMax =   4.38454263650785E+04  8.43080954339974E-02
 cg2d: Sum(rhs),rhsMax =   4.50374424147797E+04  8.45756136348016E-02
 cg2d: Sum(rhs),rhsMax =   4.62208960895416E+04  8.48330040160558E-02
 cg2d: Sum(rhs),rhsMax =   4.73956321060519E+04  8.50802517271015E-02
 cg2d: Sum(rhs),rhsMax =   4.85614962817098E+04  8.53173427334699E-02
 cg2d: Sum(rhs),rhsMax =   4.97183355553390E+04  8.55442676208529E-02
 cg2d: Sum(rhs),rhsMax =   5.08659980077698E+04  8.57610249638324E-02
 cg2d: Sum(rhs),rhsMax =   5.20043328822602E+04  8.59676256586258E-02
 cg2d: Sum(rhs),rhsMax =   5.31331906047783E+04  8.61640919842891E-02
 cg2d: Sum(rhs),rhsMax =   5.42524228041317E+04  8.63504584078403E-02
 cg2d: Sum(rhs),rhsMax =   5.53618823319407E+04  8.65267755974050E-02
 cg2d: Sum(rhs),rhsMax =   5.64614232824509E+04  8.66931118719382E-02
 cg2d: Sum(rhs),rhsMax =   5.75509010121949E+04  8.68495505220965E-02
 cg2d: Sum(rhs),rhsMax =   5.86301721594768E+04  8.69961864371351E-02
 cg2d: Sum(rhs),rhsMax =   5.96990946637024E+04  8.71331239992246E-02
 cg2d: Sum(rhs),rhsMax =   6.07575277845344E+04  8.72604752579109E-02
 cg2d: Sum(rhs),rhsMax =   6.18053321208765E+04  8.73783593934032E-02
 cg2d: Sum(rhs),rhsMax =   6.28423696296811E+04  8.74869025543317E-02
 cg2d: Sum(rhs),rhsMax =   6.38685036445848E+04  8.75862375306008E-02
 cg2d: Sum(rhs),rhsMax =   6.48835988943545E+04  8.76765039019398E-02
 cg2d: Sum(rhs),rhsMax =   6.58875215211585E+04  8.77578444440466E-02
 cg2d: Sum(rhs),rhsMax =   6.68801390986499E+04  8.78304056972908E-02
 cg2d: Sum(rhs),rhsMax =   6.78613206498548E+04  8.78943402211150E-02
 cg2d: Sum(rhs),rhsMax =   6.88309366648808E+04  8.79498054796011E-02
 cg2d: Sum(rhs),rhsMax =   6.97888591184213E+04  8.79969629273668E-02
 cg2d: Sum(rhs),rhsMax =   7.07349614870678E+04  8.80359778078012E-02
 cg2d: Sum(rhs),rhsMax =   7.16691187664224E+04  8.80670196147466E-02
(PID.TID 0000.0001)      cg2d_init_res =   9.99967185876549E-01
(PID.TID 0000.0001)      cg2d_iters(min,last) =      -1     153
(PID.TID 0000.0001)      cg2d_last_res =   1.97178258008407E-11
(PID.TID 0000.0001) // =======================================================
(PID.TID 0000.0001) // Begin MONITOR dynamic field statistics
(PID.TID 0000.0001) // =======================================================
(PID.TID 0000.0001) %MON time_tsnumber                =              15813135
(PID.TID 0000.0001) %MON time_secondsf                =   1.2650508000000E+09
(PID.TID 0000.0001) %MON dynstat_eta_max              =   6.4218711758187E-01
(PID.TID 0000.0001) %MON dynstat_eta_min              =  -1.7173526784218E+00
(PID.TID 0000.0001) %MON dynstat_eta_mean             =  -2.7085317695262E-01
(PID.TID 0000.0001) %MON dynstat_eta_sd               =   2.7950207303243E-01
(PID.TID 0000.0001) %MON dynstat_eta_del2             =   1.1906351908919E-06
(PID.TID 0000.0001) %MON dynstat_uvel_max             =   3.0077191034172E+00
(PID.TID 0000.0001) %MON dynstat_uvel_min             =  -3.0089778979015E+00
(PID.TID 0000.0001) %MON dynstat_uvel_mean            =  -1.0827693019412E-02
(PID.TID 0000.0001) %MON dynstat_uvel_sd              =   9.4630016857663E-02
(PID.TID 0000.0001) %MON dynstat_uvel_del2            =   1.9808461573608E-06
(PID.TID 0000.0001) %MON dynstat_vvel_max             =   2.7253423906776E+00
(PID.TID 0000.0001) %MON dynstat_vvel_min             =  -2.7005000157023E+00
(PID.TID 0000.0001) %MON dynstat_vvel_mean            =  -1.5944587584592E-02
(PID.TID 0000.0001) %MON dynstat_vvel_sd              =   8.6696472701495E-02
(PID.TID 0000.0001) %MON dynstat_vvel_del2            =   1.8765172966468E-06
(PID.TID 0000.0001) %MON dynstat_wvel_max             =   4.1543859461817E-02
(PID.TID 0000.0001) %MON dynstat_wvel_min             =  -3.1871842912333E-02
(PID.TID 0000.0001) %MON dynstat_wvel_mean            =  -2.8940222808450E-05
(PID.TID 0000.0001) %MON dynstat_wvel_sd              =   1.6785912479618E-03
(PID.TID 0000.0001) %MON dynstat_wvel_del2            =   1.0053649307306E-07
(PID.TID 0000.0001) %MON dynstat_theta_max            =   2.4976309716047E+01
(PID.TID 0000.0001) %MON dynstat_theta_min            =  -2.4728370346900E+00
(PID.TID 0000.0001) %MON dynstat_theta_mean           =   5.5829508819266E+00
(PID.TID 0000.0001) %MON dynstat_theta_sd             =   4.6751419276542E+00
(PID.TID 0000.0001) %MON dynstat_theta_del2           =   7.3906795689814E-06
(PID.TID 0000.0001) %MON dynstat_salt_max             =   8.9658755168408E+01
(PID.TID 0000.0001) %MON dynstat_salt_min             =   2.0158574256118E+00
(PID.TID 0000.0001) %MON dynstat_salt_mean            =   3.5191486517097E+01
(PID.TID 0000.0001) %MON dynstat_salt_sd              =   4.5295387069791E-01
(PID.TID 0000.0001) %MON dynstat_salt_del2            =   1.4726893629262E-06
(PID.TID 0000.0001) %MON dynstat_sst_max              =   2.4970365998211E+01
(PID.TID 0000.0001) %MON dynstat_sst_min              =  -2.4728370346900E+00
(PID.TID 0000.0001) %MON dynstat_sst_mean             =   1.7667774113369E+01
(PID.TID 0000.0001) %MON dynstat_sst_sd               =   3.3985635839715E+00
(PID.TID 0000.0001) %MON dynstat_sst_del2             =   8.9658810973214E-05
(PID.TID 0000.0001) %MON dynstat_sss_max              =   8.9658755168408E+01
(PID.TID 0000.0001) %MON dynstat_sss_min              =   2.0158574256118E+00
(PID.TID 0000.0001) %MON dynstat_sss_mean             =   3.6425728953988E+01
(PID.TID 0000.0001) %MON dynstat_sss_sd               =   4.5382710261036E-01
(PID.TID 0000.0001) %MON dynstat_sss_del2             =   1.6570822945548E-05
(PID.TID 0000.0001) %MON forcing_qnet_max             =   1.1474436448500E+03
(PID.TID 0000.0001) %MON forcing_qnet_min             =  -4.1699395546934E+02
(PID.TID 0000.0001) %MON forcing_qnet_mean            =   1.9997056804431E+02
(PID.TID 0000.0001) %MON forcing_qnet_sd              =   2.1605244895326E+02
(PID.TID 0000.0001) %MON forcing_qnet_del2            =   6.0048886708841E-03
(PID.TID 0000.0001) %MON forcing_qsw_max              =   0.0000000000000E+00
(PID.TID 0000.0001) %MON forcing_qsw_min              =  -5.7947675424470E+02
(PID.TID 0000.0001) %MON forcing_qsw_mean             =  -1.3029029016160E+02
(PID.TID 0000.0001) %MON forcing_qsw_sd               =   1.1641774496847E+02
(PID.TID 0000.0001) %MON forcing_qsw_del2             =   1.2056590558830E-04
(PID.TID 0000.0001) %MON forcing_empmr_max            =   3.1600767017176E-04
(PID.TID 0000.0001) %MON forcing_empmr_min            =  -1.0120261184625E-03
(PID.TID 0000.0001) %MON forcing_empmr_mean           =   5.5894150531486E-05
(PID.TID 0000.0001) %MON forcing_empmr_sd             =   1.0856945647035E-04
(PID.TID 0000.0001) %MON forcing_empmr_del2           =   1.5516702578249E-09
(PID.TID 0000.0001) %MON forcing_fu_max               =   9.1609585403262E-01
(PID.TID 0000.0001) %MON forcing_fu_min               =  -1.6379650745988E-01
(PID.TID 0000.0001) %MON forcing_fu_mean              =   1.4773029917926E-01
(PID.TID 0000.0001) %MON forcing_fu_sd                =   1.7804757063344E-01
(PID.TID 0000.0001) %MON forcing_fu_del2              =   1.0972504458074E-06
(PID.TID 0000.0001) %MON forcing_fv_max               =   5.9233538273814E-01
(PID.TID 0000.0001) %MON forcing_fv_min               =  -7.4522323456208E-01
(PID.TID 0000.0001) %MON forcing_fv_mean              =  -6.5077375611680E-02
(PID.TID 0000.0001) %MON forcing_fv_sd                =   1.8407897337530E-01
(PID.TID 0000.0001) %MON forcing_fv_del2              =   8.9863987857498E-07
(PID.TID 0000.0001) %MON trAdv_CFL_u_max              =   1.0184062741255E-01
(PID.TID 0000.0001) %MON trAdv_CFL_v_max              =   9.4120350183915E-02
(PID.TID 0000.0001) %MON trAdv_CFL_w_max              =   3.4733087375698E-01
(PID.TID 0000.0001) %MON advcfl_uvel_max              =   1.0184062685156E-01
(PID.TID 0000.0001) %MON advcfl_vvel_max              =   9.4131611959413E-02
(PID.TID 0000.0001) %MON advcfl_wvel_max              =   3.4129642055951E-01
(PID.TID 0000.0001) %MON advcfl_W_hf_max              =   3.4733087375698E-01
(PID.TID 0000.0001) %MON pe_b_mean                    =  -6.3955500969035E-03
(PID.TID 0000.0001) %MON ke_max                       =   4.8926846857177E+00
(PID.TID 0000.0001) %MON ke_mean                      =   8.3758185244098E-03
(PID.TID 0000.0001) %MON ke_vol                       =   4.6123795034297E+16
(PID.TID 0000.0001) %MON vort_r_min                   =  -1.9837145326469E-03
(PID.TID 0000.0001) %MON vort_r_max                   =   1.7532685347027E-03
(PID.TID 0000.0001) %MON vort_a_mean                  =   8.2145894754852E-05
(PID.TID 0000.0001) %MON vort_a_sd                    =   1.4130427378379E-05
(PID.TID 0000.0001) %MON vort_p_mean                  =   8.4437925283234E-05
(PID.TID 0000.0001) %MON vort_p_sd                    =   3.4154548488351E-05
(PID.TID 0000.0001) %MON surfExpan_theta_mean         =  -7.0573245668287E-04
(PID.TID 0000.0001) %MON surfExpan_salt_mean          =  -1.6031210482902E-03
(PID.TID 0000.0001) // =======================================================
(PID.TID 0000.0001) // End MONITOR dynamic field statistics
(PID.TID 0000.0001) // =======================================================
(PID.TID 0000.0001) // =======================================================
(PID.TID 0000.0001) // Begin OBCS MONITOR field statistics
(PID.TID 0000.0001) // =======================================================
(PID.TID 0000.0001) %MON obc_E_uVel_max               =   5.3453630141905E-01
(PID.TID 0000.0001) %MON obc_E_uVel_min               =   1.4101357045842E-01
(PID.TID 0000.0001) %MON obc_E_uVel_mean              =   3.5813531824236E-01
(PID.TID 0000.0001) %MON obc_E_uVel_sd                =   8.4486781237302E-02
(PID.TID 0000.0001) %MON obc_E_uVel_Int               =   2.4440769043319E+06
(PID.TID 0000.0001) %MON obc_N_vVel_max               =   1.9300300254348E-01
(PID.TID 0000.0001) %MON obc_N_vVel_min               =  -1.1839536303338E+00
(PID.TID 0000.0001) %MON obc_N_vVel_mean              =  -8.1614964950608E-03
(PID.TID 0000.0001) %MON obc_N_vVel_sd                =   4.0352895134341E-02
(PID.TID 0000.0001) %MON obc_N_vVel_Int               =  -1.1646165523879E+08
(PID.TID 0000.0001) %MON obc_S_vVel_max               =   1.2374423150716E+00
(PID.TID 0000.0001) %MON obc_S_vVel_min               =  -1.7695721910316E-01
(PID.TID 0000.0001) %MON obc_S_vVel_mean              =  -2.0251356996969E-02
(PID.TID 0000.0001) %MON obc_S_vVel_sd                =   3.0210689836525E-02
(PID.TID 0000.0001) %MON obc_S_vVel_Int               =  -6.1580000368229E+08
(PID.TID 0000.0001) %MON obc_E_theta_max              =   1.5981519699097E+01
(PID.TID 0000.0001) %MON obc_E_theta_min              =   1.3104037284851E+01
(PID.TID 0000.0001) %MON obc_E_theta_mean             =   1.4974089986960E+01
(PID.TID 0000.0001) %MON obc_E_theta_sd               =   6.0075505804650E-01
(PID.TID 0000.0001) %MON obc_N_theta_max              =   1.5721092224121E+01
(PID.TID 0000.0001) %MON obc_N_theta_min              =   9.7373789548874E-01
(PID.TID 0000.0001) %MON obc_N_theta_mean             =   5.3443110148828E+00
(PID.TID 0000.0001) %MON obc_N_theta_sd               =   3.5834807335781E+00
(PID.TID 0000.0001) %MON obc_S_theta_max              =   2.4979528427124E+01
(PID.TID 0000.0001) %MON obc_S_theta_min              =   1.5124862194061E+00
(PID.TID 0000.0001) %MON obc_S_theta_mean             =   5.4273114502690E+00
(PID.TID 0000.0001) %MON obc_S_theta_sd               =   5.1694562801555E+00
(PID.TID 0000.0001) %MON obc_E_salt_max               =   3.8703720092773E+01
(PID.TID 0000.0001) %MON obc_E_salt_min               =   3.6289142608643E+01
(PID.TID 0000.0001) %MON obc_E_salt_mean              =   3.6643778075730E+01
(PID.TID 0000.0001) %MON obc_E_salt_sd                =   5.5037722650442E-01
(PID.TID 0000.0001) %MON obc_N_salt_max               =   3.6066974639893E+01
(PID.TID 0000.0001) %MON obc_N_salt_min               =   3.2878395080566E+01
(PID.TID 0000.0001) %MON obc_N_salt_mean              =   3.5117165924185E+01
(PID.TID 0000.0001) %MON obc_N_salt_sd                =   3.1541903364831E-01
(PID.TID 0000.0001) %MON obc_S_salt_max               =   3.7600940704346E+01
(PID.TID 0000.0001) %MON obc_S_salt_min               =   3.4853485107422E+01
(PID.TID 0000.0001) %MON obc_S_salt_mean              =   3.5185630803177E+01
(PID.TID 0000.0001) %MON obc_S_salt_sd                =   4.9502018312198E-01
(PID.TID 0000.0001) // =======================================================
(PID.TID 0000.0001) // End OBCS MONITOR field statistics
(PID.TID 0000.0001) // =======================================================
(PID.TID 0000.0001) // =======================================================
(PID.TID 0000.0001) // Begin MONITOR ptracer field statistics
(PID.TID 0000.0001) // =======================================================
(PID.TID 0000.0001) %MON trcstat_ptracer01_max        =   0.0000000000000E+00
(PID.TID 0000.0001) %MON trcstat_ptracer01_min        =   0.0000000000000E+00
(PID.TID 0000.0001) %MON trcstat_ptracer01_mean       =   0.0000000000000E+00
(PID.TID 0000.0001) %MON trcstat_ptracer01_sd         =   0.0000000000000E+00
(PID.TID 0000.0001) %MON trcstat_ptracer01_del2       =   0.0000000000000E+00
(PID.TID 0000.0001) %MON trcstat_ptracer02_max        =   0.0000000000000E+00
(PID.TID 0000.0001) %MON trcstat_ptracer02_min        =   0.0000000000000E+00
(PID.TID 0000.0001) %MON trcstat_ptracer02_mean       =   0.0000000000000E+00
(PID.TID 0000.0001) %MON trcstat_ptracer02_sd         =   0.0000000000000E+00
(PID.TID 0000.0001) %MON trcstat_ptracer02_del2       =   0.0000000000000E+00
(PID.TID 0000.0001) // =======================================================
(PID.TID 0000.0001) // End MONITOR ptracer field statistics
(PID.TID 0000.0001) // =======================================================
(PID.TID 0000.0001) // =======================================================
(PID.TID 0000.0001) // Begin MONITOR EXF statistics
(PID.TID 0000.0001) // =======================================================
(PID.TID 0000.0001) %MON exf_tsnumber                 =              15813135
(PID.TID 0000.0001) %MON exf_time_sec                 =   1.2650508000000E+09
(PID.TID 0000.0001) %MON exf_ustress_max              =   9.1434131656785E-01
(PID.TID 0000.0001) %MON exf_ustress_min              =  -1.6363898398797E-01
(PID.TID 0000.0001) %MON exf_ustress_mean             =   1.4759098641651E-01
(PID.TID 0000.0001) %MON exf_ustress_sd               =   1.7807557927296E-01
(PID.TID 0000.0001) %MON exf_ustress_del2             =   1.1999902543717E-06
(PID.TID 0000.0001) %MON exf_vstress_max              =   5.9543054151438E-01
(PID.TID 0000.0001) %MON exf_vstress_min              =  -7.4799671190128E-01
(PID.TID 0000.0001) %MON exf_vstress_mean             =  -6.5122739105652E-02
(PID.TID 0000.0001) %MON exf_vstress_sd               =   1.8409101337629E-01
(PID.TID 0000.0001) %MON exf_vstress_del2             =   1.0039907257331E-06
(PID.TID 0000.0001) %MON exf_hflux_max                =   1.1255373042833E+03
(PID.TID 0000.0001) %MON exf_hflux_min                =  -4.1523471686009E+02
(PID.TID 0000.0001) %MON exf_hflux_mean               =   1.9728878665290E+02
(PID.TID 0000.0001) %MON exf_hflux_sd                 =   2.1197226681348E+02
(PID.TID 0000.0001) %MON exf_hflux_del2               =   9.0358567283277E-02
(PID.TID 0000.0001) %MON exf_sflux_max                =   3.1623155493890E-07
(PID.TID 0000.0001) %MON exf_sflux_min                =  -1.0121783237137E-06
(PID.TID 0000.0001) %MON exf_sflux_mean               =   5.5954942398647E-08
(PID.TID 0000.0001) %MON exf_sflux_sd                 =   1.0835712111746E-07
(PID.TID 0000.0001) %MON exf_sflux_del2               =   3.7528903933903E-11
(PID.TID 0000.0001) %MON exf_uwind_max                =   1.9985413269544E+01
(PID.TID 0000.0001) %MON exf_uwind_min                =  -8.3314418085482E+00
(PID.TID 0000.0001) %MON exf_uwind_mean               =   5.9589012839648E+00
(PID.TID 0000.0001) %MON exf_uwind_sd                 =   5.8545679280493E+00
(PID.TID 0000.0001) %MON exf_uwind_del2               =   2.5864364532032E-03
(PID.TID 0000.0001) %MON exf_vwind_max                =   1.6601794194573E+01
(PID.TID 0000.0001) %MON exf_vwind_min                =  -1.8059781938445E+01
(PID.TID 0000.0001) %MON exf_vwind_mean               =  -2.5894008124187E+00
(PID.TID 0000.0001) %MON exf_vwind_sd                 =   7.5733254255727E+00
(PID.TID 0000.0001) %MON exf_vwind_del2               =   2.4658190270758E-03
(PID.TID 0000.0001) %MON exf_wspeed_max               =   2.0470942768520E+01
(PID.TID 0000.0001) %MON exf_wspeed_min               =   1.6020348539255E-02
(PID.TID 0000.0001) %MON exf_wspeed_mean              =   1.0766313872278E+01
(PID.TID 0000.0001) %MON exf_wspeed_sd                =   4.2345259839503E+00
(PID.TID 0000.0001) %MON exf_wspeed_del2              =   3.5732830275084E-03
(PID.TID 0000.0001) %MON exf_atemp_max                =   2.9673487985273E+02
(PID.TID 0000.0001) %MON exf_atemp_min                =   2.7168830947202E+02
(PID.TID 0000.0001) %MON exf_atemp_mean               =   2.8867038807470E+02
(PID.TID 0000.0001) %MON exf_atemp_sd                 =   4.0232617773178E+00
(PID.TID 0000.0001) %MON exf_atemp_del2               =   4.8560886966744E-03
(PID.TID 0000.0001) %MON exf_aqh_max                  =   1.4561105291425E-02
(PID.TID 0000.0001) %MON exf_aqh_min                  =   2.1269328708305E-03
(PID.TID 0000.0001) %MON exf_aqh_mean                 =   7.8260028506339E-03
(PID.TID 0000.0001) %MON exf_aqh_sd                   =   2.2895690638784E-03
(PID.TID 0000.0001) %MON exf_aqh_del2                 =   2.4739836118113E-06
(PID.TID 0000.0001) %MON exf_lwflux_max               =   1.4896632104472E+02
(PID.TID 0000.0001) %MON exf_lwflux_min               =   9.0980198769852E-01
(PID.TID 0000.0001) %MON exf_lwflux_mean              =   6.5219895371044E+01
(PID.TID 0000.0001) %MON exf_lwflux_sd                =   2.0781123918078E+01
(PID.TID 0000.0001) %MON exf_lwflux_del2              =   2.1046522844436E-02
(PID.TID 0000.0001) %MON exf_evap_max                 =   3.2861272656879E-07
(PID.TID 0000.0001) %MON exf_evap_min                 =  -1.7624991707929E-08
(PID.TID 0000.0001) %MON exf_evap_mean                =   8.7498346696988E-08
(PID.TID 0000.0001) %MON exf_evap_sd                  =   5.6646067134682E-08
(PID.TID 0000.0001) %MON exf_evap_del2                =   3.2171448946835E-11
(PID.TID 0000.0001) %MON exf_precip_max               =   1.0695905768080E-06
(PID.TID 0000.0001) %MON exf_precip_min               =   0.0000000000000E+00
(PID.TID 0000.0001) %MON exf_precip_mean              =   2.9936359663871E-08
(PID.TID 0000.0001) %MON exf_precip_sd                =   8.4822821791445E-08
(PID.TID 0000.0001) %MON exf_precip_del2              =   2.7678402010283E-11
(PID.TID 0000.0001) %MON exf_swflux_max               =   0.0000000000000E+00
(PID.TID 0000.0001) %MON exf_swflux_min               =  -5.7740043435247E+02
(PID.TID 0000.0001) %MON exf_swflux_mean              =  -1.2865274606381E+02
(PID.TID 0000.0001) %MON exf_swflux_sd                =   1.1582098630514E+02
(PID.TID 0000.0001) %MON exf_swflux_del2              =   5.2384273063251E-02
(PID.TID 0000.0001) %MON exf_swdown_max               =   6.3355087445088E+02
(PID.TID 0000.0001) %MON exf_swdown_min               =   0.0000000000000E+00
(PID.TID 0000.0001) %MON exf_swdown_mean              =   1.4164855780194E+02
(PID.TID 0000.0001) %MON exf_swdown_sd                =   1.2740620552723E+02
(PID.TID 0000.0001) %MON exf_swdown_del2              =   5.7674198594033E-02
(PID.TID 0000.0001) %MON exf_lwdown_max               =   4.1513563672496E+02
(PID.TID 0000.0001) %MON exf_lwdown_min               =   2.3642236718125E+02
(PID.TID 0000.0001) %MON exf_lwdown_mean              =   3.3866331156347E+02
(PID.TID 0000.0001) %MON exf_lwdown_sd                =   3.1630162127091E+01
(PID.TID 0000.0001) %MON exf_lwdown_del2              =   1.0361492774895E-01
(PID.TID 0000.0001) %MON exf_apressure_max            =   1.0272899101763E+05
(PID.TID 0000.0001) %MON exf_apressure_min            =   9.8337629148500E+04
(PID.TID 0000.0001) %MON exf_apressure_mean           =   1.0141575802255E+05
(PID.TID 0000.0001) %MON exf_apressure_sd             =   1.0407507578028E+03
(PID.TID 0000.0001) %MON exf_apressure_del2           =   3.0990579535196E+01
(PID.TID 0000.0001) %MON exf_runoff_max               =   4.6633690723924E-08
(PID.TID 0000.0001) %MON exf_runoff_min               =   0.0000000000000E+00
(PID.TID 0000.0001) %MON exf_runoff_mean              =   1.6070446344693E-09
(PID.TID 0000.0001) %MON exf_runoff_sd                =   5.4409705936606E-09
(PID.TID 0000.0001) %MON exf_runoff_del2              =   1.7602788524736E-12
(PID.TID 0000.0001) // =======================================================
(PID.TID 0000.0001) // End MONITOR EXF statistics
(PID.TID 0000.0001) // =======================================================
 cg2d: Sum(rhs),rhsMax =   7.25912074880129E+04  8.80902632143848E-02
 cg2d: Sum(rhs),rhsMax =   7.35011057359921E+04  8.81058461365011E-02
 cg2d: Sum(rhs),rhsMax =   7.43986931636469E+04  8.81139211171314E-02
 cg2d: Sum(rhs),rhsMax =   7.52838510096805E+04  8.81146586225797E-02
 cg2d: Sum(rhs),rhsMax =   7.61564621143010E+04  8.81082476557439E-02
 cg2d: Sum(rhs),rhsMax =   7.70164109350774E+04  8.80948946101961E-02
 cg2d: Sum(rhs),rhsMax =   7.78635835626026E+04  8.80748209726584E-02
 cg2d: Sum(rhs),rhsMax =   7.86978677359056E+04  8.80482606048739E-02
 cg2d: Sum(rhs),rhsMax =   7.95191528576807E+04  8.80154566980415E-02
 cg2d: Sum(rhs),rhsMax =   8.03273300092573E+04  8.79766586061761E-02
 cg2d: Sum(rhs),rhsMax =   8.11222919653784E+04  8.79321186112413E-02
 cg2d: Sum(rhs),rhsMax =   8.19039332087134E+04  8.78820892525237E-02
 cg2d: Sum(rhs),rhsMax =   8.26721499441871E+04  8.78268215022199E-02
 cg2d: Sum(rhs),rhsMax =   8.34268401130221E+04  8.77665629667763E-02
 cg2d: Sum(rhs),rhsMax =   8.41679034066091E+04  8.77015570646902E-02
 cg2d: Sum(rhs),rhsMax =   8.48952412800761E+04  8.76320429500665E-02
 cg2d: Sum(rhs),rhsMax =   8.56087569656840E+04  8.75582553208493E-02
 cg2d: Sum(rhs),rhsMax =   8.63083554859188E+04  8.74804238280567E-02
 cg2d: Sum(rhs),rhsMax =   8.69939436664062E+04  8.73987746395109E-02
 cg2d: Sum(rhs),rhsMax =   8.76654301485137E+04  8.73135287391313E-02
 cg2d: Sum(rhs),rhsMax =   8.83227254017786E+04  8.72248990164993E-02
 cg2d: Sum(rhs),rhsMax =   8.89657417360180E+04  8.71330861875137E-02
 cg2d: Sum(rhs),rhsMax =   8.95943933132584E+04  8.70382738147528E-02
 cg2d: Sum(rhs),rhsMax =   9.02085961593414E+04  8.69406228981078E-02
 cg2d: Sum(rhs),rhsMax =   9.08082681753572E+04  8.68402666217570E-02
 cg2d: Sum(rhs),rhsMax =   9.13933291487344E+04  8.67373058750798E-02
 cg2d: Sum(rhs),rhsMax =   9.19637007641648E+04  8.66318057562671E-02
 cg2d: Sum(rhs),rhsMax =   9.25193066141849E+04  8.65237903581733E-02
 cg2d: Sum(rhs),rhsMax =   9.30600722095786E+04  8.64132522189660E-02
 cg2d: Sum(rhs),rhsMax =   9.35859249894373E+04  8.63001522458583E-02
 cg2d: Sum(rhs),rhsMax =   9.40967943310453E+04  8.61844205223671E-02
 cg2d: Sum(rhs),rhsMax =   9.45926115594036E+04  8.60659588656252E-02
 cg2d: Sum(rhs),rhsMax =   9.50733099565946E+04  8.59446447290413E-02
 cg2d: Sum(rhs),rhsMax =   9.55388247707732E+04  8.58203354803901E-02
 cg2d: Sum(rhs),rhsMax =   9.59890932249975E+04  8.56928720126710E-02
 cg2d: Sum(rhs),rhsMax =   9.64240545256768E+04  8.55620809730729E-02
 cg2d: Sum(rhs),rhsMax =   9.68436498708719E+04  8.54277755050920E-02
 cg2d: Sum(rhs),rhsMax =   9.72478224581915E+04  8.52897549320679E-02
 cg2d: Sum(rhs),rhsMax =   9.76365174925551E+04  8.51478038226667E-02
 cg2d: Sum(rhs),rhsMax =   9.80096821935445E+04  8.50016882398431E-02
 cg2d: Sum(rhs),rhsMax =   9.83672658026114E+04  8.48511601965914E-02
 cg2d: Sum(rhs),rhsMax =   9.87092195898813E+04  8.46959560388073E-02
 cg2d: Sum(rhs),rhsMax =   9.90354968608128E+04  8.45357937161075E-02
 cg2d: Sum(rhs),rhsMax =   9.93460529624371E+04  8.43703772775673E-02
 cg2d: Sum(rhs),rhsMax =   9.96408452894715E+04  8.41993977666716E-02
(PID.TID 0000.0001)      cg2d_init_res =   7.56118017235745E-01
(PID.TID 0000.0001)      cg2d_iters(min,last) =      -1     151
(PID.TID 0000.0001)      cg2d_last_res =   1.99871370343341E-11
(PID.TID 0000.0001) // =======================================================
(PID.TID 0000.0001) // Begin MONITOR dynamic field statistics
(PID.TID 0000.0001) // =======================================================
(PID.TID 0000.0001) %MON time_tsnumber                =              15813180
(PID.TID 0000.0001) %MON time_secondsf                =   1.2650544000000E+09
(PID.TID 0000.0001) %MON dynstat_eta_max              =   7.0476596630241E-01
(PID.TID 0000.0001) %MON dynstat_eta_min              =  -1.8943532430016E+00
(PID.TID 0000.0001) %MON dynstat_eta_mean             =  -3.7656441107997E-01
(PID.TID 0000.0001) %MON dynstat_eta_sd               =   3.2133935466364E-01
(PID.TID 0000.0001) %MON dynstat_eta_del2             =   1.1363577687227E-06
(PID.TID 0000.0001) %MON dynstat_uvel_max             =   2.9684449081391E+00
(PID.TID 0000.0001) %MON dynstat_uvel_min             =  -3.0983587152539E+00
(PID.TID 0000.0001) %MON dynstat_uvel_mean            =  -1.4562638626906E-02
(PID.TID 0000.0001) %MON dynstat_uvel_sd              =   9.4482074899788E-02
(PID.TID 0000.0001) %MON dynstat_uvel_del2            =   1.9716075485532E-06
(PID.TID 0000.0001) %MON dynstat_vvel_max             =   2.6853030521050E+00
(PID.TID 0000.0001) %MON dynstat_vvel_min             =  -2.6364403892784E+00
(PID.TID 0000.0001) %MON dynstat_vvel_mean            =  -1.2774741442372E-02
(PID.TID 0000.0001) %MON dynstat_vvel_sd              =   8.6612188079997E-02
(PID.TID 0000.0001) %MON dynstat_vvel_del2            =   1.8671015534768E-06
(PID.TID 0000.0001) %MON dynstat_wvel_max             =   4.9988655731358E-02
(PID.TID 0000.0001) %MON dynstat_wvel_min             =  -3.0682678206309E-02
(PID.TID 0000.0001) %MON dynstat_wvel_mean            =  -1.0934120658098E-05
(PID.TID 0000.0001) %MON dynstat_wvel_sd              =   1.6735729257602E-03
(PID.TID 0000.0001) %MON dynstat_wvel_del2            =   9.9751703846281E-08
(PID.TID 0000.0001) %MON dynstat_theta_max            =   2.4974979153317E+01
(PID.TID 0000.0001) %MON dynstat_theta_min            =  -2.4176817175449E+00
(PID.TID 0000.0001) %MON dynstat_theta_mean           =   5.5831578430185E+00
(PID.TID 0000.0001) %MON dynstat_theta_sd             =   4.6752084926666E+00
(PID.TID 0000.0001) %MON dynstat_theta_del2           =   7.3994455244354E-06
(PID.TID 0000.0001) %MON dynstat_salt_max             =   8.9660675421264E+01
(PID.TID 0000.0001) %MON dynstat_salt_min             =   2.0158591481163E+00
(PID.TID 0000.0001) %MON dynstat_salt_mean            =   3.5191514481825E+01
(PID.TID 0000.0001) %MON dynstat_salt_sd              =   4.5298348667478E-01
(PID.TID 0000.0001) %MON dynstat_salt_del2            =   1.4755631856105E-06
(PID.TID 0000.0001) %MON dynstat_sst_max              =   2.4968683940390E+01
(PID.TID 0000.0001) %MON dynstat_sst_min              =  -2.4176817175449E+00
(PID.TID 0000.0001) %MON dynstat_sst_mean             =   1.7660580676287E+01
(PID.TID 0000.0001) %MON dynstat_sst_sd               =   3.3971764607738E+00
(PID.TID 0000.0001) %MON dynstat_sst_del2             =   9.0220520076933E-05
(PID.TID 0000.0001) %MON dynstat_sss_max              =   8.9660675421264E+01
(PID.TID 0000.0001) %MON dynstat_sss_min              =   2.0158591481163E+00
(PID.TID 0000.0001) %MON dynstat_sss_mean             =   3.6425565989037E+01
(PID.TID 0000.0001) %MON dynstat_sss_sd               =   4.5371464498164E-01
(PID.TID 0000.0001) %MON dynstat_sss_del2             =   1.6609950527259E-05
(PID.TID 0000.0001) %MON forcing_qnet_max             =   1.1831310083615E+03
(PID.TID 0000.0001) %MON forcing_qnet_min             =  -3.0676850239352E+02
(PID.TID 0000.0001) %MON forcing_qnet_mean            =   2.5980628901576E+02
(PID.TID 0000.0001) %MON forcing_qnet_sd              =   2.0655247513273E+02
(PID.TID 0000.0001) %MON forcing_qnet_del2            =   5.9315761470331E-03
(PID.TID 0000.0001) %MON forcing_qsw_max              =   0.0000000000000E+00
(PID.TID 0000.0001) %MON forcing_qsw_min              =  -4.6532008605449E+02
(PID.TID 0000.0001) %MON forcing_qsw_mean             =  -6.7037372243849E+01
(PID.TID 0000.0001) %MON forcing_qsw_sd               =   8.5109970080710E+01
(PID.TID 0000.0001) %MON forcing_qsw_del2             =   7.9714768682729E-05
(PID.TID 0000.0001) %MON forcing_empmr_max            =   3.0363194309417E-04
(PID.TID 0000.0001) %MON forcing_empmr_min            =  -1.2361412796193E-03
(PID.TID 0000.0001) %MON forcing_empmr_mean           =   5.7838304127452E-05
(PID.TID 0000.0001) %MON forcing_empmr_sd             =   1.0147480213581E-04
(PID.TID 0000.0001) %MON forcing_empmr_del2           =   1.5397972342028E-09
(PID.TID 0000.0001) %MON forcing_fu_max               =   9.1428098070574E-01
(PID.TID 0000.0001) %MON forcing_fu_min               =  -1.4697518900194E-01
(PID.TID 0000.0001) %MON forcing_fu_mean              =   1.4069618002263E-01
(PID.TID 0000.0001) %MON forcing_fu_sd                =   1.7493558077608E-01
(PID.TID 0000.0001) %MON forcing_fu_del2              =   1.0632592688371E-06
(PID.TID 0000.0001) %MON forcing_fv_max               =   5.6242760442574E-01
(PID.TID 0000.0001) %MON forcing_fv_min               =  -7.1540413628633E-01
(PID.TID 0000.0001) %MON forcing_fv_mean              =  -6.6956010587771E-02
(PID.TID 0000.0001) %MON forcing_fv_sd                =   1.7847506673134E-01
(PID.TID 0000.0001) %MON forcing_fv_del2              =   8.5795422900333E-07
(PID.TID 0000.0001) %MON trAdv_CFL_u_max              =   1.0371452965188E-01
(PID.TID 0000.0001) %MON trAdv_CFL_v_max              =   9.2737643464695E-02
(PID.TID 0000.0001) %MON trAdv_CFL_w_max              =   3.1022192346524E-01
(PID.TID 0000.0001) %MON advcfl_uvel_max              =   1.0371452908054E-01
(PID.TID 0000.0001) %MON advcfl_vvel_max              =   9.2748678389481E-02
(PID.TID 0000.0001) %MON advcfl_wvel_max              =   3.0505155807415E-01
(PID.TID 0000.0001) %MON advcfl_W_hf_max              =   3.1022192346524E-01
(PID.TID 0000.0001) %MON pe_b_mean                    =  -8.8175343591952E-03
(PID.TID 0000.0001) %MON ke_max                       =   4.8450292897997E+00
(PID.TID 0000.0001) %MON ke_mean                      =   8.3565835442108E-03
(PID.TID 0000.0001) %MON ke_vol                       =   4.6123795034297E+16
(PID.TID 0000.0001) %MON vort_r_min                   =  -1.7435848785362E-03
(PID.TID 0000.0001) %MON vort_r_max                   =   1.4693554768505E-03
(PID.TID 0000.0001) %MON vort_a_mean                  =   8.2145896237562E-05
(PID.TID 0000.0001) %MON vort_a_sd                    =   1.4127956829912E-05
(PID.TID 0000.0001) %MON vort_p_mean                  =   8.4437926807315E-05
(PID.TID 0000.0001) %MON vort_p_sd                    =   3.4147981625951E-05
(PID.TID 0000.0001) %MON surfExpan_theta_mean         =  -1.7311268099315E-04
(PID.TID 0000.0001) %MON surfExpan_salt_mean          =  -5.0195452094313E-04
(PID.TID 0000.0001) // =======================================================
(PID.TID 0000.0001) // End MONITOR dynamic field statistics
(PID.TID 0000.0001) // =======================================================
(PID.TID 0000.0001) // =======================================================
(PID.TID 0000.0001) // Begin OBCS MONITOR field statistics
(PID.TID 0000.0001) // =======================================================
(PID.TID 0000.0001) %MON obc_E_uVel_max               =   2.7359962723172E-01
(PID.TID 0000.0001) %MON obc_E_uVel_min               =  -8.2850004084281E-02
(PID.TID 0000.0001) %MON obc_E_uVel_mean              =   1.3499788667554E-01
(PID.TID 0000.0001) %MON obc_E_uVel_sd                =   7.8190553044608E-02
(PID.TID 0000.0001) %MON obc_E_uVel_Int               =   9.2128645277601E+05
(PID.TID 0000.0001) %MON obc_N_vVel_max               =   1.8427573459526E-01
(PID.TID 0000.0001) %MON obc_N_vVel_min               =  -1.2062550171802E+00
(PID.TID 0000.0001) %MON obc_N_vVel_mean              =  -1.3146542500045E-02
(PID.TID 0000.0001) %MON obc_N_vVel_sd                =   4.1378054310535E-02
(PID.TID 0000.0001) %MON obc_N_vVel_Int               =  -1.8759649056382E+08
(PID.TID 0000.0001) %MON obc_S_vVel_max               =   1.2506555210753E+00
(PID.TID 0000.0001) %MON obc_S_vVel_min               =  -1.7096072521616E-01
(PID.TID 0000.0001) %MON obc_S_vVel_mean              =  -1.1346510109539E-02
(PID.TID 0000.0001) %MON obc_S_vVel_sd                =   2.9268508797410E-02
(PID.TID 0000.0001) %MON obc_S_vVel_Int               =  -3.4502285295159E+08
(PID.TID 0000.0001) %MON obc_E_theta_max              =   1.5981519699097E+01
(PID.TID 0000.0001) %MON obc_E_theta_min              =   1.3104037284851E+01
(PID.TID 0000.0001) %MON obc_E_theta_mean             =   1.4974089986960E+01
(PID.TID 0000.0001) %MON obc_E_theta_sd               =   6.0075505804650E-01
(PID.TID 0000.0001) %MON obc_N_theta_max              =   1.5721092224121E+01
(PID.TID 0000.0001) %MON obc_N_theta_min              =   9.7373789548874E-01
(PID.TID 0000.0001) %MON obc_N_theta_mean             =   5.3443110148828E+00
(PID.TID 0000.0001) %MON obc_N_theta_sd               =   3.5834807335781E+00
(PID.TID 0000.0001) %MON obc_S_theta_max              =   2.4979528427124E+01
(PID.TID 0000.0001) %MON obc_S_theta_min              =   1.5124862194061E+00
(PID.TID 0000.0001) %MON obc_S_theta_mean             =   5.4273114502690E+00
(PID.TID 0000.0001) %MON obc_S_theta_sd               =   5.1694562801555E+00
(PID.TID 0000.0001) %MON obc_E_salt_max               =   3.8703720092773E+01
(PID.TID 0000.0001) %MON obc_E_salt_min               =   3.6289142608643E+01
(PID.TID 0000.0001) %MON obc_E_salt_mean              =   3.6643778075730E+01
(PID.TID 0000.0001) %MON obc_E_salt_sd                =   5.5037722650442E-01
(PID.TID 0000.0001) %MON obc_N_salt_max               =   3.6066974639893E+01
(PID.TID 0000.0001) %MON obc_N_salt_min               =   3.2878395080566E+01
(PID.TID 0000.0001) %MON obc_N_salt_mean              =   3.5117165924185E+01
(PID.TID 0000.0001) %MON obc_N_salt_sd                =   3.1541903364831E-01
(PID.TID 0000.0001) %MON obc_S_salt_max               =   3.7600940704346E+01
(PID.TID 0000.0001) %MON obc_S_salt_min               =   3.4853485107422E+01
(PID.TID 0000.0001) %MON obc_S_salt_mean              =   3.5185630803177E+01
(PID.TID 0000.0001) %MON obc_S_salt_sd                =   4.9502018312198E-01
(PID.TID 0000.0001) // =======================================================
(PID.TID 0000.0001) // End OBCS MONITOR field statistics
(PID.TID 0000.0001) // =======================================================
(PID.TID 0000.0001) // =======================================================
(PID.TID 0000.0001) // Begin MONITOR ptracer field statistics
(PID.TID 0000.0001) // =======================================================
(PID.TID 0000.0001) %MON trcstat_ptracer01_max        =   0.0000000000000E+00
(PID.TID 0000.0001) %MON trcstat_ptracer01_min        =   0.0000000000000E+00
(PID.TID 0000.0001) %MON trcstat_ptracer01_mean       =   0.0000000000000E+00
(PID.TID 0000.0001) %MON trcstat_ptracer01_sd         =   0.0000000000000E+00
(PID.TID 0000.0001) %MON trcstat_ptracer01_del2       =   0.0000000000000E+00
(PID.TID 0000.0001) %MON trcstat_ptracer02_max        =   0.0000000000000E+00
(PID.TID 0000.0001) %MON trcstat_ptracer02_min        =   0.0000000000000E+00
(PID.TID 0000.0001) %MON trcstat_ptracer02_mean       =   0.0000000000000E+00
(PID.TID 0000.0001) %MON trcstat_ptracer02_sd         =   0.0000000000000E+00
(PID.TID 0000.0001) %MON trcstat_ptracer02_del2       =   0.0000000000000E+00
(PID.TID 0000.0001) // =======================================================
(PID.TID 0000.0001) // End MONITOR ptracer field statistics
(PID.TID 0000.0001) // =======================================================
(PID.TID 0000.0001) // =======================================================
(PID.TID 0000.0001) // Begin MONITOR EXF statistics
(PID.TID 0000.0001) // =======================================================
(PID.TID 0000.0001) %MON exf_tsnumber                 =              15813180
(PID.TID 0000.0001) %MON exf_time_sec                 =   1.2650544000000E+09
(PID.TID 0000.0001) %MON exf_ustress_max              =   9.1801608568658E-01
(PID.TID 0000.0001) %MON exf_ustress_min              =  -1.4719568131883E-01
(PID.TID 0000.0001) %MON exf_ustress_mean             =   1.4053709572715E-01
(PID.TID 0000.0001) %MON exf_ustress_sd               =   1.7494316372638E-01
(PID.TID 0000.0001) %MON exf_ustress_del2             =   1.1607797688874E-06
(PID.TID 0000.0001) %MON exf_vstress_max              =   5.6316988150973E-01
(PID.TID 0000.0001) %MON exf_vstress_min              =  -7.1553827473076E-01
(PID.TID 0000.0001) %MON exf_vstress_mean             =  -6.6975853279506E-02
(PID.TID 0000.0001) %MON exf_vstress_sd               =   1.7847457387346E-01
(PID.TID 0000.0001) %MON exf_vstress_del2             =   9.5731123147356E-07
(PID.TID 0000.0001) %MON exf_hflux_max                =   1.1656697101040E+03
(PID.TID 0000.0001) %MON exf_hflux_min                =  -3.0390667513709E+02
(PID.TID 0000.0001) %MON exf_hflux_mean               =   2.5646443547167E+02
(PID.TID 0000.0001) %MON exf_hflux_sd                 =   2.0234862181092E+02
(PID.TID 0000.0001) %MON exf_hflux_del2               =   1.0165719058734E-01
(PID.TID 0000.0001) %MON exf_sflux_max                =   3.0309326408385E-07
(PID.TID 0000.0001) %MON exf_sflux_min                =  -1.2351311098546E-06
(PID.TID 0000.0001) %MON exf_sflux_mean               =   5.7890282443668E-08
(PID.TID 0000.0001) %MON exf_sflux_sd                 =   1.0131398277887E-07
(PID.TID 0000.0001) %MON exf_sflux_del2               =   3.5905745438043E-11
(PID.TID 0000.0001) %MON exf_uwind_max                =   2.0016089946417E+01
(PID.TID 0000.0001) %MON exf_uwind_min                =  -8.2339525336236E+00
(PID.TID 0000.0001) %MON exf_uwind_mean               =   5.7222870146105E+00
(PID.TID 0000.0001) %MON exf_uwind_sd                 =   5.9232559063913E+00
(PID.TID 0000.0001) %MON exf_uwind_del2               =   2.5498581449409E-03
(PID.TID 0000.0001) %MON exf_vwind_max                =   1.6384157961079E+01
(PID.TID 0000.0001) %MON exf_vwind_min                =  -1.7634907517317E+01
(PID.TID 0000.0001) %MON exf_vwind_mean               =  -2.7035483503510E+00
(PID.TID 0000.0001) %MON exf_vwind_sd                 =   7.4745817680769E+00
(PID.TID 0000.0001) %MON exf_vwind_del2               =   2.4485025617637E-03
(PID.TID 0000.0001) %MON exf_wspeed_max               =   2.0582047735510E+01
(PID.TID 0000.0001) %MON exf_wspeed_min               =   6.1552013505217E-03
(PID.TID 0000.0001) %MON exf_wspeed_mean              =   1.0650861411644E+01
(PID.TID 0000.0001) %MON exf_wspeed_sd                =   4.1913275570504E+00
(PID.TID 0000.0001) %MON exf_wspeed_del2              =   3.5348855494964E-03
(PID.TID 0000.0001) %MON exf_atemp_max                =   2.9673715925460E+02
(PID.TID 0000.0001) %MON exf_atemp_min                =   2.7224387654430E+02
(PID.TID 0000.0001) %MON exf_atemp_mean               =   2.8870187003729E+02
(PID.TID 0000.0001) %MON exf_atemp_sd                 =   3.9342595559149E+00
(PID.TID 0000.0001) %MON exf_atemp_del2               =   4.8589312833813E-03
(PID.TID 0000.0001) %MON exf_aqh_max                  =   1.4452617201586E-02
(PID.TID 0000.0001) %MON exf_aqh_min                  =   2.2232523369380E-03
(PID.TID 0000.0001) %MON exf_aqh_mean                 =   7.8092902310561E-03
(PID.TID 0000.0001) %MON exf_aqh_sd                   =   2.2411591100752E-03
(PID.TID 0000.0001) %MON exf_aqh_del2                 =   2.4649156807837E-06
(PID.TID 0000.0001) %MON exf_lwflux_max               =   1.4680303346308E+02
(PID.TID 0000.0001) %MON exf_lwflux_min               =   2.1127012449895E+00
(PID.TID 0000.0001) %MON exf_lwflux_mean              =   6.4709792752782E+01
(PID.TID 0000.0001) %MON exf_lwflux_sd                =   2.0469768928802E+01
(PID.TID 0000.0001) %MON exf_lwflux_del2              =   2.0870781722773E-02
(PID.TID 0000.0001) %MON exf_evap_max                 =   3.2021909763919E-07
(PID.TID 0000.0001) %MON exf_evap_min                 =  -1.7361383306789E-08
(PID.TID 0000.0001) %MON exf_evap_mean                =   8.6752387531386E-08
(PID.TID 0000.0001) %MON exf_evap_sd                  =   5.5647814759715E-08
(PID.TID 0000.0001) %MON exf_evap_del2                =   3.1804239088791E-11
(PID.TID 0000.0001) %MON exf_precip_max               =   1.2977442252437E-06
(PID.TID 0000.0001) %MON exf_precip_min               =   0.0000000000000E+00
(PID.TID 0000.0001) %MON exf_precip_mean              =   2.7255060453248E-08
(PID.TID 0000.0001) %MON exf_precip_sd                =   7.7490313098687E-08
(PID.TID 0000.0001) %MON exf_precip_del2              =   2.5274184408052E-11
(PID.TID 0000.0001) %MON exf_swflux_max               =   0.0000000000000E+00
(PID.TID 0000.0001) %MON exf_swflux_min               =  -4.6251705244004E+02
(PID.TID 0000.0001) %MON exf_swflux_mean              =  -6.5885255044179E+01
(PID.TID 0000.0001) %MON exf_swflux_sd                =   8.4240119705846E+01
(PID.TID 0000.0001) %MON exf_swflux_del2              =   3.2308890211543E-02
(PID.TID 0000.0001) %MON exf_swdown_max               =   5.0689306791769E+02
(PID.TID 0000.0001) %MON exf_swdown_min               =   0.0000000000000E+00
(PID.TID 0000.0001) %MON exf_swdown_mean              =   7.2516302475800E+01
(PID.TID 0000.0001) %MON exf_swdown_sd                =   9.2671143898795E+01
(PID.TID 0000.0001) %MON exf_swdown_del2              =   3.5561708267063E-02
(PID.TID 0000.0001) %MON exf_lwdown_max               =   4.1233433509363E+02
(PID.TID 0000.0001) %MON exf_lwdown_min               =   2.4161519273234E+02
(PID.TID 0000.0001) %MON exf_lwdown_mean              =   3.3914878481617E+02
(PID.TID 0000.0001) %MON exf_lwdown_sd                =   3.1561662201285E+01
(PID.TID 0000.0001) %MON exf_lwdown_del2              =   1.0376033142784E-01
(PID.TID 0000.0001) %MON exf_apressure_max            =   1.0272991415272E+05
(PID.TID 0000.0001) %MON exf_apressure_min            =   9.8398226957341E+04
(PID.TID 0000.0001) %MON exf_apressure_mean           =   1.0145807613530E+05
(PID.TID 0000.0001) %MON exf_apressure_sd             =   1.0265929419972E+03
(PID.TID 0000.0001) %MON exf_apressure_del2           =   3.1003822058703E+01
(PID.TID 0000.0001) %MON exf_runoff_max               =   4.6633690723924E-08
(PID.TID 0000.0001) %MON exf_runoff_min               =   0.0000000000000E+00
(PID.TID 0000.0001) %MON exf_runoff_mean              =   1.6070446344693E-09
(PID.TID 0000.0001) %MON exf_runoff_sd                =   5.4409705936606E-09
(PID.TID 0000.0001) %MON exf_runoff_del2              =   1.7602788524736E-12
(PID.TID 0000.0001) // =======================================================
(PID.TID 0000.0001) // End MONITOR EXF statistics
(PID.TID 0000.0001) // =======================================================
 cg2d: Sum(rhs),rhsMax =   9.99198332899961E+04  8.40225350193534E-02
 cg2d: Sum(rhs),rhsMax =   1.00182978471004E+05  8.38394841652404E-02
 cg2d: Sum(rhs),rhsMax =   1.00430244403523E+05  8.36499315404988E-02
 cg2d: Sum(rhs),rhsMax =   1.00661596727604E+05  8.34535569728153E-02
 cg2d: Sum(rhs),rhsMax =   1.00877003156870E+05  8.32500366426397E-02
 cg2d: Sum(rhs),rhsMax =   1.01076433482948E+05  8.30390460113564E-02
 cg2d: Sum(rhs),rhsMax =   1.01259859579447E+05  8.28202627246982E-02
 cg2d: Sum(rhs),rhsMax =   1.01427255405821E+05  8.25933694084925E-02
 cg2d: Sum(rhs),rhsMax =   1.01578597010789E+05  8.23580544379034E-02
 cg2d: Sum(rhs),rhsMax =   1.01713862535614E+05  8.21140200167115E-02
 cg2d: Sum(rhs),rhsMax =   1.01833032216959E+05  8.18609837674354E-02
 cg2d: Sum(rhs),rhsMax =   1.01936088389598E+05  8.15986795823217E-02
 cg2d: Sum(rhs),rhsMax =   1.02023015488699E+05  8.13268582595019E-02
 cg2d: Sum(rhs),rhsMax =   1.02093800051957E+05  8.10452878091853E-02
 cg2d: Sum(rhs),rhsMax =   1.02148430721311E+05  8.07537532745555E-02
 cg2d: Sum(rhs),rhsMax =   1.02186898244506E+05  8.04520557681024E-02
 cg2d: Sum(rhs),rhsMax =   1.02209195476225E+05  8.01400115246034E-02
 cg2d: Sum(rhs),rhsMax =   1.02215317379088E+05  7.98174511254743E-02
 cg2d: Sum(rhs),rhsMax =   1.02205261024210E+05  7.94842193495661E-02
 cg2d: Sum(rhs),rhsMax =   1.02179025591620E+05  7.91401760987149E-02
 cg2d: Sum(rhs),rhsMax =   1.02136612370252E+05  7.87851985724087E-02
 cg2d: Sum(rhs),rhsMax =   1.02078024757784E+05  7.84191845727285E-02
 cg2d: Sum(rhs),rhsMax =   1.02003268260062E+05  7.80420565159334E-02
 cg2d: Sum(rhs),rhsMax =   1.01912350490364E+05  7.76537654850190E-02
 cg2d: Sum(rhs),rhsMax =   1.01805281168253E+05  7.72542945007550E-02
 cg2d: Sum(rhs),rhsMax =   1.01682072118263E+05  7.68436603344445E-02
 cg2d: Sum(rhs),rhsMax =   1.01542737268188E+05  7.64219133068292E-02
 cg2d: Sum(rhs),rhsMax =   1.01387292647194E+05  7.59891349597883E-02
 cg2d: Sum(rhs),rhsMax =   1.01215756383539E+05  7.55454336975247E-02
 cg2d: Sum(rhs),rhsMax =   1.01028148702116E+05  7.50909385895497E-02
 cg2d: Sum(rhs),rhsMax =   1.00824491921610E+05  7.46257923934357E-02
 cg2d: Sum(rhs),rhsMax =   1.00604810451461E+05  7.41501459648272E-02
 cg2d: Sum(rhs),rhsMax =   1.00369130788467E+05  7.36641491956854E-02
 cg2d: Sum(rhs),rhsMax =   1.00117481513180E+05  7.31679484872644E-02
 cg2d: Sum(rhs),rhsMax =   9.98498932859411E+04  7.26616842443918E-02
 cg2d: Sum(rhs),rhsMax =   9.95663988427247E+04  7.21454899381275E-02
 cg2d: Sum(rhs),rhsMax =   9.92670329906047E+04  7.16194932372587E-02
 cg2d: Sum(rhs),rhsMax =   9.89518326030349E+04  7.10838190409618E-02
 cg2d: Sum(rhs),rhsMax =   9.86208366147743E+04  7.05385924666105E-02
 cg2d: Sum(rhs),rhsMax =   9.82740860165987E+04  6.99839417367815E-02
 cg2d: Sum(rhs),rhsMax =   9.79116238496735E+04  6.94200017847658E-02
 cg2d: Sum(rhs),rhsMax =   9.75334951997226E+04  6.88469168890162E-02
 cg2d: Sum(rhs),rhsMax =   9.71397471908466E+04  6.82648424895800E-02
 cg2d: Sum(rhs),rhsMax =   9.67304289791331E+04  6.76739466230365E-02
 cg2d: Sum(rhs),rhsMax =   9.63055917459482E+04  6.70744102617536E-02
(PID.TID 0000.0001)      cg2d_init_res =   6.33672044823801E-01
(PID.TID 0000.0001)      cg2d_iters(min,last) =      -1     150
(PID.TID 0000.0001)      cg2d_last_res =   1.83196815962605E-11
(PID.TID 0000.0001) // =======================================================
(PID.TID 0000.0001) // Begin MONITOR dynamic field statistics
(PID.TID 0000.0001) // =======================================================
(PID.TID 0000.0001) %MON time_tsnumber                =              15813225
(PID.TID 0000.0001) %MON time_secondsf                =   1.2650580000000E+09
(PID.TID 0000.0001) %MON dynstat_eta_max              =   8.6767902401758E-01
(PID.TID 0000.0001) %MON dynstat_eta_min              =  -2.0341722189030E+00
(PID.TID 0000.0001) %MON dynstat_eta_mean             =  -3.6395976302855E-01
(PID.TID 0000.0001) %MON dynstat_eta_sd               =   4.0382482361043E-01
(PID.TID 0000.0001) %MON dynstat_eta_del2             =   1.0754051277331E-06
(PID.TID 0000.0001) %MON dynstat_uvel_max             =   2.9321595530017E+00
(PID.TID 0000.0001) %MON dynstat_uvel_min             =  -3.1010319836719E+00
(PID.TID 0000.0001) %MON dynstat_uvel_mean            =  -1.3896182134012E-02
(PID.TID 0000.0001) %MON dynstat_uvel_sd              =   9.4159706011347E-02
(PID.TID 0000.0001) %MON dynstat_uvel_del2            =   1.9545527987128E-06
(PID.TID 0000.0001) %MON dynstat_vvel_max             =   2.6722866633474E+00
(PID.TID 0000.0001) %MON dynstat_vvel_min             =  -2.5896174931399E+00
(PID.TID 0000.0001) %MON dynstat_vvel_mean            =  -6.3888814752722E-03
(PID.TID 0000.0001) %MON dynstat_vvel_sd              =   8.6532232544080E-02
(PID.TID 0000.0001) %MON dynstat_vvel_del2            =   1.8488328901118E-06
(PID.TID 0000.0001) %MON dynstat_wvel_max             =   5.5223086634677E-02
(PID.TID 0000.0001) %MON dynstat_wvel_min             =  -3.0378131130707E-02
(PID.TID 0000.0001) %MON dynstat_wvel_mean            =   9.7098109615615E-06
(PID.TID 0000.0001) %MON dynstat_wvel_sd              =   1.6726964199837E-03
(PID.TID 0000.0001) %MON dynstat_wvel_del2            =   9.9181551240174E-08
(PID.TID 0000.0001) %MON dynstat_theta_max            =   2.4974289390277E+01
(PID.TID 0000.0001) %MON dynstat_theta_min            =  -2.3853967500383E+00
(PID.TID 0000.0001) %MON dynstat_theta_mean           =   5.5830145889843E+00
(PID.TID 0000.0001) %MON dynstat_theta_sd             =   4.6748640831884E+00
(PID.TID 0000.0001) %MON dynstat_theta_del2           =   7.4244818307449E-06
(PID.TID 0000.0001) %MON dynstat_salt_max             =   8.9662417447932E+01
(PID.TID 0000.0001) %MON dynstat_salt_min             =   2.0158599613325E+00
(PID.TID 0000.0001) %MON dynstat_salt_mean            =   3.5191507352989E+01
(PID.TID 0000.0001) %MON dynstat_salt_sd              =   4.5296570651384E-01
(PID.TID 0000.0001) %MON dynstat_salt_del2            =   1.4794267764566E-06
(PID.TID 0000.0001) %MON dynstat_sst_max              =   2.4967898361043E+01
(PID.TID 0000.0001) %MON dynstat_sst_min              =  -2.3853967500383E+00
(PID.TID 0000.0001) %MON dynstat_sst_mean             =   1.7653988998329E+01
(PID.TID 0000.0001) %MON dynstat_sst_sd               =   3.3955967623401E+00
(PID.TID 0000.0001) %MON dynstat_sst_del2             =   9.0876094920316E-05
(PID.TID 0000.0001) %MON dynstat_sss_max              =   8.9662417447932E+01
(PID.TID 0000.0001) %MON dynstat_sss_min              =   2.0158599613325E+00
(PID.TID 0000.0001) %MON dynstat_sss_mean             =   3.6425399709981E+01
(PID.TID 0000.0001) %MON dynstat_sss_sd               =   4.5366960056131E-01
(PID.TID 0000.0001) %MON dynstat_sss_del2             =   1.6684810133985E-05
(PID.TID 0000.0001) %MON forcing_qnet_max             =   1.1839920037606E+03
(PID.TID 0000.0001) %MON forcing_qnet_min             =  -1.8293668695092E+02
(PID.TID 0000.0001) %MON forcing_qnet_mean            =   2.9662016417384E+02
(PID.TID 0000.0001) %MON forcing_qnet_sd              =   2.0145503623762E+02
(PID.TID 0000.0001) %MON forcing_qnet_del2            =   5.8638724705857E-03
(PID.TID 0000.0001) %MON forcing_qsw_max              =   0.0000000000000E+00
(PID.TID 0000.0001) %MON forcing_qsw_min              =  -3.1740861631096E+02
(PID.TID 0000.0001) %MON forcing_qsw_mean             =  -2.6104613331216E+01
(PID.TID 0000.0001) %MON forcing_qsw_sd               =   4.6928071209067E+01
(PID.TID 0000.0001) %MON forcing_qsw_del2             =   4.0608819757453E-05
(PID.TID 0000.0001) %MON forcing_empmr_max            =   2.9072959525334E-04
(PID.TID 0000.0001) %MON forcing_empmr_min            =  -1.1079350314712E-03
(PID.TID 0000.0001) %MON forcing_empmr_mean           =   5.9507659092822E-05
(PID.TID 0000.0001) %MON forcing_empmr_sd             =   9.4642849968960E-05
(PID.TID 0000.0001) %MON forcing_empmr_del2           =   1.5239469639739E-09
(PID.TID 0000.0001) %MON forcing_fu_max               =   8.9038069291952E-01
(PID.TID 0000.0001) %MON forcing_fu_min               =  -1.4943087843511E-01
(PID.TID 0000.0001) %MON forcing_fu_mean              =   1.3323150658334E-01
(PID.TID 0000.0001) %MON forcing_fu_sd                =   1.7121984540365E-01
(PID.TID 0000.0001) %MON forcing_fu_del2              =   1.0259797290301E-06
(PID.TID 0000.0001) %MON forcing_fv_max               =   5.3168438646621E-01
(PID.TID 0000.0001) %MON forcing_fv_min               =  -7.1164327075843E-01
(PID.TID 0000.0001) %MON forcing_fv_mean              =  -6.7530937820147E-02
(PID.TID 0000.0001) %MON forcing_fv_sd                =   1.7231395166041E-01
(PID.TID 0000.0001) %MON forcing_fv_del2              =   8.1313546481732E-07
(PID.TID 0000.0001) %MON trAdv_CFL_u_max              =   1.0380401469932E-01
(PID.TID 0000.0001) %MON trAdv_CFL_v_max              =   9.2288092912381E-02
(PID.TID 0000.0001) %MON trAdv_CFL_w_max              =   3.0008196199493E-01
(PID.TID 0000.0001) %MON advcfl_uvel_max              =   1.0380401412748E-01
(PID.TID 0000.0001) %MON advcfl_vvel_max              =   9.2299100508978E-02
(PID.TID 0000.0001) %MON advcfl_wvel_max              =   2.9477477790563E-01
(PID.TID 0000.0001) %MON advcfl_W_hf_max              =   3.0008196199493E-01
(PID.TID 0000.0001) %MON pe_b_mean                    =  -8.4244553488914E-03
(PID.TID 0000.0001) %MON ke_max                       =   4.8036900716302E+00
(PID.TID 0000.0001) %MON ke_mean                      =   8.2492070663224E-03
(PID.TID 0000.0001) %MON ke_vol                       =   4.6123795034297E+16
(PID.TID 0000.0001) %MON vort_r_min                   =  -1.4783460456375E-03
(PID.TID 0000.0001) %MON vort_r_max                   =   1.3083183985969E-03
(PID.TID 0000.0001) %MON vort_a_mean                  =   8.2145899026591E-05
(PID.TID 0000.0001) %MON vort_a_sd                    =   1.4094104787703E-05
(PID.TID 0000.0001) %MON vort_p_mean                  =   8.4437929674163E-05
(PID.TID 0000.0001) %MON vort_p_sd                    =   3.4079434252194E-05
(PID.TID 0000.0001) %MON surfExpan_theta_mean         =   4.0449756082775E-04
(PID.TID 0000.0001) %MON surfExpan_salt_mean          =   7.3561512346273E-04
(PID.TID 0000.0001) // =======================================================
(PID.TID 0000.0001) // End MONITOR dynamic field statistics
(PID.TID 0000.0001) // =======================================================
(PID.TID 0000.0001) // =======================================================
(PID.TID 0000.0001) // Begin OBCS MONITOR field statistics
(PID.TID 0000.0001) // =======================================================
(PID.TID 0000.0001) %MON obc_E_uVel_max               =  -3.9195638123908E-02
(PID.TID 0000.0001) %MON obc_E_uVel_min               =  -3.5251488679019E-01
(PID.TID 0000.0001) %MON obc_E_uVel_mean              =  -1.3251291113164E-01
(PID.TID 0000.0001) %MON obc_E_uVel_sd                =   7.1689870457478E-02
(PID.TID 0000.0001) %MON obc_E_uVel_Int               =  -9.0432785912349E+05
(PID.TID 0000.0001) %MON obc_N_vVel_max               =   1.8572131944137E-01
(PID.TID 0000.0001) %MON obc_N_vVel_min               =  -9.9298043512420E-01
(PID.TID 0000.0001) %MON obc_N_vVel_mean              =  -1.5086241098372E-02
(PID.TID 0000.0001) %MON obc_N_vVel_sd                =   4.1231689478856E-02
(PID.TID 0000.0001) %MON obc_N_vVel_Int               =  -2.1527530039512E+08
(PID.TID 0000.0001) %MON obc_S_vVel_max               =   1.2580819655178E+00
(PID.TID 0000.0001) %MON obc_S_vVel_min               =  -1.5916684827907E-01
(PID.TID 0000.0001) %MON obc_S_vVel_mean              =   3.9534608236898E-04
(PID.TID 0000.0001) %MON obc_S_vVel_sd                =   2.7965705087812E-02
(PID.TID 0000.0001) %MON obc_S_vVel_Int               =   1.2021620033415E+07
(PID.TID 0000.0001) %MON obc_E_theta_max              =   1.5981519699097E+01
(PID.TID 0000.0001) %MON obc_E_theta_min              =   1.3104037284851E+01
(PID.TID 0000.0001) %MON obc_E_theta_mean             =   1.4974089986960E+01
(PID.TID 0000.0001) %MON obc_E_theta_sd               =   6.0075505804650E-01
(PID.TID 0000.0001) %MON obc_N_theta_max              =   1.5721092224121E+01
(PID.TID 0000.0001) %MON obc_N_theta_min              =   9.7373789548874E-01
(PID.TID 0000.0001) %MON obc_N_theta_mean             =   5.3443110148828E+00
(PID.TID 0000.0001) %MON obc_N_theta_sd               =   3.5834807335781E+00
(PID.TID 0000.0001) %MON obc_S_theta_max              =   2.4979528427124E+01
(PID.TID 0000.0001) %MON obc_S_theta_min              =   1.5124862194061E+00
(PID.TID 0000.0001) %MON obc_S_theta_mean             =   5.4273114502690E+00
(PID.TID 0000.0001) %MON obc_S_theta_sd               =   5.1694562801555E+00
(PID.TID 0000.0001) %MON obc_E_salt_max               =   3.8703720092773E+01
(PID.TID 0000.0001) %MON obc_E_salt_min               =   3.6289142608643E+01
(PID.TID 0000.0001) %MON obc_E_salt_mean              =   3.6643778075730E+01
(PID.TID 0000.0001) %MON obc_E_salt_sd                =   5.5037722650442E-01
(PID.TID 0000.0001) %MON obc_N_salt_max               =   3.6066974639893E+01
(PID.TID 0000.0001) %MON obc_N_salt_min               =   3.2878395080566E+01
(PID.TID 0000.0001) %MON obc_N_salt_mean              =   3.5117165924185E+01
(PID.TID 0000.0001) %MON obc_N_salt_sd                =   3.1541903364831E-01
(PID.TID 0000.0001) %MON obc_S_salt_max               =   3.7600940704346E+01
(PID.TID 0000.0001) %MON obc_S_salt_min               =   3.4853485107422E+01
(PID.TID 0000.0001) %MON obc_S_salt_mean              =   3.5185630803177E+01
(PID.TID 0000.0001) %MON obc_S_salt_sd                =   4.9502018312198E-01
(PID.TID 0000.0001) // =======================================================
(PID.TID 0000.0001) // End OBCS MONITOR field statistics
(PID.TID 0000.0001) // =======================================================
(PID.TID 0000.0001) // =======================================================
(PID.TID 0000.0001) // Begin MONITOR ptracer field statistics
(PID.TID 0000.0001) // =======================================================
(PID.TID 0000.0001) %MON trcstat_ptracer01_max        =   0.0000000000000E+00
(PID.TID 0000.0001) %MON trcstat_ptracer01_min        =   0.0000000000000E+00
(PID.TID 0000.0001) %MON trcstat_ptracer01_mean       =   0.0000000000000E+00
(PID.TID 0000.0001) %MON trcstat_ptracer01_sd         =   0.0000000000000E+00
(PID.TID 0000.0001) %MON trcstat_ptracer01_del2       =   0.0000000000000E+00
(PID.TID 0000.0001) %MON trcstat_ptracer02_max        =   0.0000000000000E+00
(PID.TID 0000.0001) %MON trcstat_ptracer02_min        =   0.0000000000000E+00
(PID.TID 0000.0001) %MON trcstat_ptracer02_mean       =   0.0000000000000E+00
(PID.TID 0000.0001) %MON trcstat_ptracer02_sd         =   0.0000000000000E+00
(PID.TID 0000.0001) %MON trcstat_ptracer02_del2       =   0.0000000000000E+00
(PID.TID 0000.0001) // =======================================================
(PID.TID 0000.0001) // End MONITOR ptracer field statistics
(PID.TID 0000.0001) // =======================================================
(PID.TID 0000.0001) // =======================================================
(PID.TID 0000.0001) // Begin MONITOR EXF statistics
(PID.TID 0000.0001) // =======================================================
(PID.TID 0000.0001) %MON exf_tsnumber                 =              15813225
(PID.TID 0000.0001) %MON exf_time_sec                 =   1.2650580000000E+09
(PID.TID 0000.0001) %MON exf_ustress_max              =   8.9526271946036E-01
(PID.TID 0000.0001) %MON exf_ustress_min              =  -1.4962862252874E-01
(PID.TID 0000.0001) %MON exf_ustress_mean             =   1.3306444699420E-01
(PID.TID 0000.0001) %MON exf_ustress_sd               =   1.7121202107262E-01
(PID.TID 0000.0001) %MON exf_ustress_del2             =   1.1173388227088E-06
(PID.TID 0000.0001) %MON exf_vstress_max              =   5.3284099173612E-01
(PID.TID 0000.0001) %MON exf_vstress_min              =  -7.1445910065296E-01
(PID.TID 0000.0001) %MON exf_vstress_mean             =  -6.7528151264172E-02
(PID.TID 0000.0001) %MON exf_vstress_sd               =   1.7230233225225E-01
(PID.TID 0000.0001) %MON exf_vstress_del2             =   9.0581867709966E-07
(PID.TID 0000.0001) %MON exf_hflux_max                =   1.1638556390210E+03
(PID.TID 0000.0001) %MON exf_hflux_min                =  -1.7916302071929E+02
(PID.TID 0000.0001) %MON exf_hflux_mean               =   2.9266845412324E+02
(PID.TID 0000.0001) %MON exf_hflux_sd                 =   1.9696575498583E+02
(PID.TID 0000.0001) %MON exf_hflux_del2               =   1.0946359751729E-01
(PID.TID 0000.0001) %MON exf_sflux_max                =   2.9071544205303E-07
(PID.TID 0000.0001) %MON exf_sflux_min                =  -1.1024743953069E-06
(PID.TID 0000.0001) %MON exf_sflux_mean               =   5.9556578553027E-08
(PID.TID 0000.0001) %MON exf_sflux_sd                 =   9.4493302637975E-08
(PID.TID 0000.0001) %MON exf_sflux_del2               =   3.4386207849500E-11
(PID.TID 0000.0001) %MON exf_uwind_max                =   1.9788686466405E+01
(PID.TID 0000.0001) %MON exf_uwind_min                =  -8.3351863731186E+00
(PID.TID 0000.0001) %MON exf_uwind_mean               =   5.4854548548480E+00
(PID.TID 0000.0001) %MON exf_uwind_sd                 =   5.9751616935144E+00
(PID.TID 0000.0001) %MON exf_uwind_del2               =   2.5109240234328E-03
(PID.TID 0000.0001) %MON exf_vwind_max                =   1.6390729411344E+01
(PID.TID 0000.0001) %MON exf_vwind_min                =  -1.7889443142862E+01
(PID.TID 0000.0001) %MON exf_vwind_mean               =  -2.7839280081949E+00
(PID.TID 0000.0001) %MON exf_vwind_sd                 =   7.3566333042801E+00
(PID.TID 0000.0001) %MON exf_vwind_del2               =   2.4228601469376E-03
(PID.TID 0000.0001) %MON exf_wspeed_max               =   2.0047856323904E+01
(PID.TID 0000.0001) %MON exf_wspeed_min               =   1.7852459912031E-03
(PID.TID 0000.0001) %MON exf_wspeed_mean              =   1.0519482428001E+01
(PID.TID 0000.0001) %MON exf_wspeed_sd                =   4.1235385779267E+00
(PID.TID 0000.0001) %MON exf_wspeed_del2              =   3.4890587850251E-03
(PID.TID 0000.0001) %MON exf_atemp_max                =   2.9668729412982E+02
(PID.TID 0000.0001) %MON exf_atemp_min                =   2.7230991255174E+02
(PID.TID 0000.0001) %MON exf_atemp_mean               =   2.8872544757297E+02
(PID.TID 0000.0001) %MON exf_atemp_sd                 =   3.8583578956980E+00
(PID.TID 0000.0001) %MON exf_atemp_del2               =   4.8603326449403E-03
(PID.TID 0000.0001) %MON exf_aqh_max                  =   1.4236493752714E-02
(PID.TID 0000.0001) %MON exf_aqh_min                  =   2.2179178410089E-03
(PID.TID 0000.0001) %MON exf_aqh_mean                 =   7.7875383132191E-03
(PID.TID 0000.0001) %MON exf_aqh_sd                   =   2.1922305643252E-03
(PID.TID 0000.0001) %MON exf_aqh_del2                 =   2.4545675083599E-06
(PID.TID 0000.0001) %MON exf_lwflux_max               =   1.4425948628405E+02
(PID.TID 0000.0001) %MON exf_lwflux_min               =  -6.7205367516958E-01
(PID.TID 0000.0001) %MON exf_lwflux_mean              =   6.3615052300483E+01
(PID.TID 0000.0001) %MON exf_lwflux_sd                =   2.0502859797590E+01
(PID.TID 0000.0001) %MON exf_lwflux_del2              =   2.0553351441129E-02
(PID.TID 0000.0001) %MON exf_evap_max                 =   3.0738040566519E-07
(PID.TID 0000.0001) %MON exf_evap_min                 =  -1.9440828449246E-08
(PID.TID 0000.0001) %MON exf_evap_mean                =   8.5964356195735E-08
(PID.TID 0000.0001) %MON exf_evap_sd                  =   5.4600465965210E-08
(PID.TID 0000.0001) %MON exf_evap_del2                =   3.1416254375533E-11
(PID.TID 0000.0001) %MON exf_precip_max               =   1.1462722313695E-06
(PID.TID 0000.0001) %MON exf_precip_min               =   0.0000000000000E+00
(PID.TID 0000.0001) %MON exf_precip_mean              =   2.4800733008238E-08
(PID.TID 0000.0001) %MON exf_precip_sd                =   6.9859781367863E-08
(PID.TID 0000.0001) %MON exf_precip_del2              =   2.2836523991647E-11
(PID.TID 0000.0001) %MON exf_swflux_max               =   0.0000000000000E+00
(PID.TID 0000.0001) %MON exf_swflux_min               =  -3.1354227763503E+02
(PID.TID 0000.0001) %MON exf_swflux_mean              =  -2.5460059948777E+01
(PID.TID 0000.0001) %MON exf_swflux_sd                =   4.6030075491468E+01
(PID.TID 0000.0001) %MON exf_swflux_del2              =   1.5824937828101E-02
(PID.TID 0000.0001) %MON exf_swdown_max               =   3.4359039256127E+02
(PID.TID 0000.0001) %MON exf_swdown_min               =   0.0000000000000E+00
(PID.TID 0000.0001) %MON exf_swdown_mean              =   2.8006490689474E+01
(PID.TID 0000.0001) %MON exf_swdown_sd                =   5.0603829146953E+01
(PID.TID 0000.0001) %MON exf_swdown_del2              =   1.7404829656403E-02
(PID.TID 0000.0001) %MON exf_lwdown_max               =   4.1126345392516E+02
(PID.TID 0000.0001) %MON exf_lwdown_min               =   2.4197150459840E+02
(PID.TID 0000.0001) %MON exf_lwdown_mean              =   3.4024029715715E+02
(PID.TID 0000.0001) %MON exf_lwdown_sd                =   3.1745581640590E+01
(PID.TID 0000.0001) %MON exf_lwdown_del2              =   1.0410467250171E-01
(PID.TID 0000.0001) %MON exf_apressure_max            =   1.0273533137565E+05
(PID.TID 0000.0001) %MON exf_apressure_min            =   9.8441634540199E+04
(PID.TID 0000.0001) %MON exf_apressure_mean           =   1.0150386029954E+05
(PID.TID 0000.0001) %MON exf_apressure_sd             =   1.0101514077574E+03
(PID.TID 0000.0001) %MON exf_apressure_del2           =   3.1018095017534E+01
(PID.TID 0000.0001) %MON exf_runoff_max               =   4.6633690723924E-08
(PID.TID 0000.0001) %MON exf_runoff_min               =   0.0000000000000E+00
(PID.TID 0000.0001) %MON exf_runoff_mean              =   1.6070446344693E-09
(PID.TID 0000.0001) %MON exf_runoff_sd                =   5.4409705936606E-09
(PID.TID 0000.0001) %MON exf_runoff_del2              =   1.7602788524736E-12
(PID.TID 0000.0001) // =======================================================
(PID.TID 0000.0001) // End MONITOR EXF statistics
(PID.TID 0000.0001) // =======================================================
 cg2d: Sum(rhs),rhsMax =   9.58652886909914E+04  6.64664272383998E-02
 cg2d: Sum(rhs),rhsMax =   9.54095750250455E+04  6.58502548589018E-02
 cg2d: Sum(rhs),rhsMax =   9.49385079625018E+04  6.52261412266480E-02
 cg2d: Sum(rhs),rhsMax =   9.44521467135705E+04  6.45943302477665E-02
 cg2d: Sum(rhs),rhsMax =   9.39505524762595E+04  6.39550706262976E-02
 cg2d: Sum(rhs),rhsMax =   9.34337884280723E+04  6.33086232952830E-02
 cg2d: Sum(rhs),rhsMax =   9.29019197174501E+04  6.26552657495262E-02
 cg2d: Sum(rhs),rhsMax =   9.23550134549414E+04  6.19952934269322E-02
 cg2d: Sum(rhs),rhsMax =   9.17931387041279E+04  6.13290192729756E-02
 cg2d: Sum(rhs),rhsMax =   9.12163664722702E+04  6.06567728860681E-02
 cg2d: Sum(rhs),rhsMax =   9.06247697007117E+04  5.99789001050021E-02
 cg2d: Sum(rhs),rhsMax =   9.00184232550245E+04  5.92957633856571E-02
 cg2d: Sum(rhs),rhsMax =   8.93974039148904E+04  5.86077428680368E-02
 cg2d: Sum(rhs),rhsMax =   8.87617903637414E+04  5.79152376878907E-02
 cg2d: Sum(rhs),rhsMax =   8.81116631781428E+04  5.72186656348706E-02
 cg2d: Sum(rhs),rhsMax =   8.74471048169295E+04  5.65184623586965E-02
 cg2d: Sum(rhs),rhsMax =   8.67681996100832E+04  5.58150800928152E-02
 cg2d: Sum(rhs),rhsMax =   8.60750337473910E+04  5.51089851384433E-02
 cg2d: Sum(rhs),rhsMax =   8.53676952668209E+04  5.44006539027051E-02
 cg2d: Sum(rhs),rhsMax =   8.46462740426941E+04  5.36905677778532E-02
 cg2d: Sum(rhs),rhsMax =   8.39108617735847E+04  5.29792068164744E-02
 cg2d: Sum(rhs),rhsMax =   8.31615519700064E+04  5.22670421566422E-02
 cg2d: Sum(rhs),rhsMax =   8.23984399418337E+04  5.15545288542533E-02
 cg2d: Sum(rhs),rhsMax =   8.16216227855302E+04  5.08420990207374E-02
 cg2d: Sum(rhs),rhsMax =   8.08311993710897E+04  5.01301553279514E-02
 cg2d: Sum(rhs),rhsMax =   8.00272703288041E+04  4.94190652005148E-02
 cg2d: Sum(rhs),rhsMax =   7.92099380357496E+04  4.87091556647055E-02
 cg2d: Sum(rhs),rhsMax =   7.83793066020945E+04  4.80007094645618E-02
 cg2d: Sum(rhs),rhsMax =   7.75354818571317E+04  4.72939632732153E-02
 cg2d: Sum(rhs),rhsMax =   7.66785713351499E+04  4.65891078685594E-02
 cg2d: Sum(rhs),rhsMax =   7.58086842610129E+04  4.58862888483914E-02
 cg2d: Sum(rhs),rhsMax =   7.49259315355981E+04  4.51856098169539E-02
 cg2d: Sum(rhs),rhsMax =   7.40304257209428E+04  4.44871360586873E-02
 cg2d: Sum(rhs),rhsMax =   7.31222810252507E+04  4.37908992313296E-02
 cg2d: Sum(rhs),rhsMax =   7.22016132876081E+04  4.30969035303991E-02
 cg2d: Sum(rhs),rhsMax =   7.12685399625842E+04  4.24051287617908E-02
 cg2d: Sum(rhs),rhsMax =   7.03231801045214E+04  4.17155337130302E-02
 cg2d: Sum(rhs),rhsMax =   6.93656543517243E+04  4.10280590541372E-02
 cg2d: Sum(rhs),rhsMax =   6.83960849103526E+04  4.03426292350485E-02
 cg2d: Sum(rhs),rhsMax =   6.74145955382003E+04  3.96591539926477E-02
 cg2d: Sum(rhs),rhsMax =   6.64213115281893E+04  3.89775287363372E-02
 cg2d: Sum(rhs),rhsMax =   6.54163596917717E+04  3.82976342756554E-02
 cg2d: Sum(rhs),rhsMax =   6.43998683420230E+04  3.76193361167202E-02
 cg2d: Sum(rhs),rhsMax =   6.33719672766654E+04  3.69424838652451E-02
 cg2d: Sum(rhs),rhsMax =   6.23327877607930E+04  3.62669111036482E-02
(PID.TID 0000.0001)      cg2d_init_res =   8.21398337589428E-01
(PID.TID 0000.0001)      cg2d_iters(min,last) =      -1     151
(PID.TID 0000.0001)      cg2d_last_res =   1.85699220786508E-11
(PID.TID 0000.0001) // =======================================================
(PID.TID 0000.0001) // Begin MONITOR dynamic field statistics
(PID.TID 0000.0001) // =======================================================
(PID.TID 0000.0001) %MON time_tsnumber                =              15813270
(PID.TID 0000.0001) %MON time_secondsf                =   1.2650616000000E+09
(PID.TID 0000.0001) %MON dynstat_eta_max              =   1.0921554837592E+00
(PID.TID 0000.0001) %MON dynstat_eta_min              =  -2.6625460862858E+00
(PID.TID 0000.0001) %MON dynstat_eta_mean             =  -2.3556915285017E-01
(PID.TID 0000.0001) %MON dynstat_eta_sd               =   4.5028881854001E-01
(PID.TID 0000.0001) %MON dynstat_eta_del2             =   1.0595477409087E-06
(PID.TID 0000.0001) %MON dynstat_uvel_max             =   2.9880918376488E+00
(PID.TID 0000.0001) %MON dynstat_uvel_min             =  -3.0374809147718E+00
(PID.TID 0000.0001) %MON dynstat_uvel_mean            =  -8.9319246499230E-03
(PID.TID 0000.0001) %MON dynstat_uvel_sd              =   9.3950118911799E-02
(PID.TID 0000.0001) %MON dynstat_uvel_del2            =   1.9345725866621E-06
(PID.TID 0000.0001) %MON dynstat_vvel_max             =   2.6515238567342E+00
(PID.TID 0000.0001) %MON dynstat_vvel_min             =  -2.6117770493020E+00
(PID.TID 0000.0001) %MON dynstat_vvel_mean            =   1.6792443529801E-03
(PID.TID 0000.0001) %MON dynstat_vvel_sd              =   8.6440806947665E-02
(PID.TID 0000.0001) %MON dynstat_vvel_del2            =   1.8292016141177E-06
(PID.TID 0000.0001) %MON dynstat_wvel_max             =   5.4557232352705E-02
(PID.TID 0000.0001) %MON dynstat_wvel_min             =  -3.0516189818215E-02
(PID.TID 0000.0001) %MON dynstat_wvel_mean            =   2.7696443770178E-05
(PID.TID 0000.0001) %MON dynstat_wvel_sd              =   1.6767567067520E-03
(PID.TID 0000.0001) %MON dynstat_wvel_del2            =   9.8752450945058E-08
(PID.TID 0000.0001) %MON dynstat_theta_max            =   2.4973476257563E+01
(PID.TID 0000.0001) %MON dynstat_theta_min            =  -2.3780235776398E+00
(PID.TID 0000.0001) %MON dynstat_theta_mean           =   5.5825497386618E+00
(PID.TID 0000.0001) %MON dynstat_theta_sd             =   4.6741801325181E+00
(PID.TID 0000.0001) %MON dynstat_theta_del2           =   7.4457507367265E-06
(PID.TID 0000.0001) %MON dynstat_salt_max             =   8.9663909906464E+01
(PID.TID 0000.0001) %MON dynstat_salt_min             =   2.0158602961917E+00
(PID.TID 0000.0001) %MON dynstat_salt_mean            =   3.5191467319429E+01
(PID.TID 0000.0001) %MON dynstat_salt_sd              =   4.5290638362869E-01
(PID.TID 0000.0001) %MON dynstat_salt_del2            =   1.4809396013555E-06
(PID.TID 0000.0001) %MON dynstat_sst_max              =   2.4966702655477E+01
(PID.TID 0000.0001) %MON dynstat_sst_min              =  -2.3780235776398E+00
(PID.TID 0000.0001) %MON dynstat_sst_mean             =   1.7648838423783E+01
(PID.TID 0000.0001) %MON dynstat_sst_sd               =   3.3942463667679E+00
(PID.TID 0000.0001) %MON dynstat_sst_del2             =   9.1497386617985E-05
(PID.TID 0000.0001) %MON dynstat_sss_max              =   8.9663909906464E+01
(PID.TID 0000.0001) %MON dynstat_sss_min              =   2.0158602961917E+00
(PID.TID 0000.0001) %MON dynstat_sss_mean             =   3.6425259340272E+01
(PID.TID 0000.0001) %MON dynstat_sss_sd               =   4.5366739061538E-01
(PID.TID 0000.0001) %MON dynstat_sss_del2             =   1.6732918946195E-05
(PID.TID 0000.0001) %MON forcing_qnet_max             =   1.1985264806586E+03
(PID.TID 0000.0001) %MON forcing_qnet_min             =  -1.2549222238834E+02
(PID.TID 0000.0001) %MON forcing_qnet_mean            =   3.0643674158227E+02
(PID.TID 0000.0001) %MON forcing_qnet_sd              =   1.9281056996483E+02
(PID.TID 0000.0001) %MON forcing_qnet_del2            =   5.7005031288856E-03
(PID.TID 0000.0001) %MON forcing_qsw_max              =   0.0000000000000E+00
(PID.TID 0000.0001) %MON forcing_qsw_min              =  -1.4492556681200E+02
(PID.TID 0000.0001) %MON forcing_qsw_mean             =  -6.1266120571739E+00
(PID.TID 0000.0001) %MON forcing_qsw_sd               =   1.5592337208040E+01
(PID.TID 0000.0001) %MON forcing_qsw_del2             =   1.5805339230146E-05
(PID.TID 0000.0001) %MON forcing_empmr_max            =   2.8199892354237E-04
(PID.TID 0000.0001) %MON forcing_empmr_min            =  -1.0794212261319E-03
(PID.TID 0000.0001) %MON forcing_empmr_mean           =   5.8561038571311E-05
(PID.TID 0000.0001) %MON forcing_empmr_sd             =   8.8966790150124E-05
(PID.TID 0000.0001) %MON forcing_empmr_del2           =   1.5017659912399E-09
(PID.TID 0000.0001) %MON forcing_fu_max               =   8.6196720975139E-01
(PID.TID 0000.0001) %MON forcing_fu_min               =  -1.6796126012773E-01
(PID.TID 0000.0001) %MON forcing_fu_mean              =   1.2464820795064E-01
(PID.TID 0000.0001) %MON forcing_fu_sd                =   1.6917507542404E-01
(PID.TID 0000.0001) %MON forcing_fu_del2              =   9.8418835649467E-07
(PID.TID 0000.0001) %MON forcing_fv_max               =   5.1549206087341E-01
(PID.TID 0000.0001) %MON forcing_fv_min               =  -6.7114157175956E-01
(PID.TID 0000.0001) %MON forcing_fv_mean              =  -6.2639513477948E-02
(PID.TID 0000.0001) %MON forcing_fv_sd                =   1.5992155589118E-01
(PID.TID 0000.0001) %MON forcing_fv_del2              =   7.5866760753548E-07
(PID.TID 0000.0001) %MON trAdv_CFL_u_max              =   1.0167670478281E-01
(PID.TID 0000.0001) %MON trAdv_CFL_v_max              =   9.1571018162064E-02
(PID.TID 0000.0001) %MON trAdv_CFL_w_max              =   3.2813946723554E-01
(PID.TID 0000.0001) %MON advcfl_uvel_max              =   1.0167670422270E-01
(PID.TID 0000.0001) %MON advcfl_vvel_max              =   9.1581966228170E-02
(PID.TID 0000.0001) %MON advcfl_wvel_max              =   3.3360845835613E-01
(PID.TID 0000.0001) %MON advcfl_W_hf_max              =   3.3926283900623E-01
(PID.TID 0000.0001) %MON pe_b_mean                    =  -5.3373385491816E-03
(PID.TID 0000.0001) %MON ke_max                       =   4.6941681540686E+00
(PID.TID 0000.0001) %MON ke_mean                      =   8.1464725815132E-03
(PID.TID 0000.0001) %MON ke_vol                       =   4.6123795034297E+16
(PID.TID 0000.0001) %MON vort_r_min                   =  -1.0848224518769E-03
(PID.TID 0000.0001) %MON vort_r_max                   =   1.0478106316113E-03
(PID.TID 0000.0001) %MON vort_a_mean                  =   8.2145902383161E-05
(PID.TID 0000.0001) %MON vort_a_sd                    =   1.4058911791146E-05
(PID.TID 0000.0001) %MON vort_p_mean                  =   8.4437933124388E-05
(PID.TID 0000.0001) %MON vort_p_sd                    =   3.4008523917647E-05
(PID.TID 0000.0001) %MON surfExpan_theta_mean         =   8.8047468523623E-04
(PID.TID 0000.0001) %MON surfExpan_salt_mean          =   1.7908741869216E-03
(PID.TID 0000.0001) // =======================================================
(PID.TID 0000.0001) // End MONITOR dynamic field statistics
(PID.TID 0000.0001) // =======================================================
(PID.TID 0000.0001) // =======================================================
(PID.TID 0000.0001) // Begin OBCS MONITOR field statistics
(PID.TID 0000.0001) // =======================================================
(PID.TID 0000.0001) %MON obc_E_uVel_max               =  -2.5619204591757E-01
(PID.TID 0000.0001) %MON obc_E_uVel_min               =  -5.9669512166879E-01
(PID.TID 0000.0001) %MON obc_E_uVel_mean              =  -3.7076776508274E-01
(PID.TID 0000.0001) %MON obc_E_uVel_sd                =   6.8974359092579E-02
(PID.TID 0000.0001) %MON obc_E_uVel_Int               =  -2.5302864178735E+06
(PID.TID 0000.0001) %MON obc_N_vVel_max               =   2.0352315988764E-01
(PID.TID 0000.0001) %MON obc_N_vVel_min               =  -5.9839945939505E-01
(PID.TID 0000.0001) %MON obc_N_vVel_mean              =  -1.3258410302793E-02
(PID.TID 0000.0001) %MON obc_N_vVel_sd                =   3.9711555923578E-02
(PID.TID 0000.0001) %MON obc_N_vVel_Int               =  -1.8919280436287E+08
(PID.TID 0000.0001) %MON obc_S_vVel_max               =   1.2585824299094E+00
(PID.TID 0000.0001) %MON obc_S_vVel_min               =  -1.5214222263331E-01
(PID.TID 0000.0001) %MON obc_S_vVel_mean              =   1.2051892634779E-02
(PID.TID 0000.0001) %MON obc_S_vVel_sd                =   2.7459221299470E-02
(PID.TID 0000.0001) %MON obc_S_vVel_Int               =   3.6647201123295E+08
(PID.TID 0000.0001) %MON obc_E_theta_max              =   1.5981519699097E+01
(PID.TID 0000.0001) %MON obc_E_theta_min              =   1.3104037284851E+01
(PID.TID 0000.0001) %MON obc_E_theta_mean             =   1.4974089986960E+01
(PID.TID 0000.0001) %MON obc_E_theta_sd               =   6.0075505804650E-01
(PID.TID 0000.0001) %MON obc_N_theta_max              =   1.5721092224121E+01
(PID.TID 0000.0001) %MON obc_N_theta_min              =   9.7373789548874E-01
(PID.TID 0000.0001) %MON obc_N_theta_mean             =   5.3443110148828E+00
(PID.TID 0000.0001) %MON obc_N_theta_sd               =   3.5834807335781E+00
(PID.TID 0000.0001) %MON obc_S_theta_max              =   2.4979528427124E+01
(PID.TID 0000.0001) %MON obc_S_theta_min              =   1.5124862194061E+00
(PID.TID 0000.0001) %MON obc_S_theta_mean             =   5.4273114502690E+00
(PID.TID 0000.0001) %MON obc_S_theta_sd               =   5.1694562801555E+00
(PID.TID 0000.0001) %MON obc_E_salt_max               =   3.8703720092773E+01
(PID.TID 0000.0001) %MON obc_E_salt_min               =   3.6289142608643E+01
(PID.TID 0000.0001) %MON obc_E_salt_mean              =   3.6643778075730E+01
(PID.TID 0000.0001) %MON obc_E_salt_sd                =   5.5037722650442E-01
(PID.TID 0000.0001) %MON obc_N_salt_max               =   3.6066974639893E+01
(PID.TID 0000.0001) %MON obc_N_salt_min               =   3.2878395080566E+01
(PID.TID 0000.0001) %MON obc_N_salt_mean              =   3.5117165924185E+01
(PID.TID 0000.0001) %MON obc_N_salt_sd                =   3.1541903364831E-01
(PID.TID 0000.0001) %MON obc_S_salt_max               =   3.7600940704346E+01
(PID.TID 0000.0001) %MON obc_S_salt_min               =   3.4853485107422E+01
(PID.TID 0000.0001) %MON obc_S_salt_mean              =   3.5185630803177E+01
(PID.TID 0000.0001) %MON obc_S_salt_sd                =   4.9502018312198E-01
(PID.TID 0000.0001) // =======================================================
(PID.TID 0000.0001) // End OBCS MONITOR field statistics
(PID.TID 0000.0001) // =======================================================
(PID.TID 0000.0001) // =======================================================
(PID.TID 0000.0001) // Begin MONITOR ptracer field statistics
(PID.TID 0000.0001) // =======================================================
(PID.TID 0000.0001) %MON trcstat_ptracer01_max        =   0.0000000000000E+00
(PID.TID 0000.0001) %MON trcstat_ptracer01_min        =   0.0000000000000E+00
(PID.TID 0000.0001) %MON trcstat_ptracer01_mean       =   0.0000000000000E+00
(PID.TID 0000.0001) %MON trcstat_ptracer01_sd         =   0.0000000000000E+00
(PID.TID 0000.0001) %MON trcstat_ptracer01_del2       =   0.0000000000000E+00
(PID.TID 0000.0001) %MON trcstat_ptracer02_max        =   0.0000000000000E+00
(PID.TID 0000.0001) %MON trcstat_ptracer02_min        =   0.0000000000000E+00
(PID.TID 0000.0001) %MON trcstat_ptracer02_mean       =   0.0000000000000E+00
(PID.TID 0000.0001) %MON trcstat_ptracer02_sd         =   0.0000000000000E+00
(PID.TID 0000.0001) %MON trcstat_ptracer02_del2       =   0.0000000000000E+00
(PID.TID 0000.0001) // =======================================================
(PID.TID 0000.0001) // End MONITOR ptracer field statistics
(PID.TID 0000.0001) // =======================================================
(PID.TID 0000.0001) // =======================================================
(PID.TID 0000.0001) // Begin MONITOR EXF statistics
(PID.TID 0000.0001) // =======================================================
(PID.TID 0000.0001) %MON exf_tsnumber                 =              15813270
(PID.TID 0000.0001) %MON exf_time_sec                 =   1.2650616000000E+09
(PID.TID 0000.0001) %MON exf_ustress_max              =   8.6354188175686E-01
(PID.TID 0000.0001) %MON exf_ustress_min              =  -1.6856902554990E-01
(PID.TID 0000.0001) %MON exf_ustress_mean             =   1.2446906809587E-01
(PID.TID 0000.0001) %MON exf_ustress_sd               =   1.6923850247079E-01
(PID.TID 0000.0001) %MON exf_ustress_del2             =   1.0699741913354E-06
(PID.TID 0000.0001) %MON exf_vstress_max              =   5.1719388247356E-01
(PID.TID 0000.0001) %MON exf_vstress_min              =  -6.7147465481710E-01
(PID.TID 0000.0001) %MON exf_vstress_mean             =  -6.2516137191325E-02
(PID.TID 0000.0001) %MON exf_vstress_sd               =   1.5979356791895E-01
(PID.TID 0000.0001) %MON exf_vstress_del2             =   8.4282319594533E-07
(PID.TID 0000.0001) %MON exf_hflux_max                =   1.1788885128677E+03
(PID.TID 0000.0001) %MON exf_hflux_min                =  -8.9590497713141E+01
(PID.TID 0000.0001) %MON exf_hflux_mean               =   3.0203701478917E+02
(PID.TID 0000.0001) %MON exf_hflux_sd                 =   1.8829903097086E+02
(PID.TID 0000.0001) %MON exf_hflux_del2               =   1.1026332861723E-01
(PID.TID 0000.0001) %MON exf_sflux_max                =   2.8211197738041E-07
(PID.TID 0000.0001) %MON exf_sflux_min                =  -1.0845275773395E-06
(PID.TID 0000.0001) %MON exf_sflux_mean               =   5.8543618640795E-08
(PID.TID 0000.0001) %MON exf_sflux_sd                 =   8.8872100427535E-08
(PID.TID 0000.0001) %MON exf_sflux_del2               =   3.2779333371791E-11
(PID.TID 0000.0001) %MON exf_uwind_max                =   1.9541094067875E+01
(PID.TID 0000.0001) %MON exf_uwind_min                =  -8.6147260469116E+00
(PID.TID 0000.0001) %MON exf_uwind_mean               =   5.2892415488577E+00
(PID.TID 0000.0001) %MON exf_uwind_sd                 =   5.9141477519452E+00
(PID.TID 0000.0001) %MON exf_uwind_del2               =   2.4573008527757E-03
(PID.TID 0000.0001) %MON exf_vwind_max                =   1.6137573933950E+01
(PID.TID 0000.0001) %MON exf_vwind_min                =  -1.7129059896488E+01
(PID.TID 0000.0001) %MON exf_vwind_mean               =  -2.6921211069232E+00
(PID.TID 0000.0001) %MON exf_vwind_sd                 =   7.1266288727205E+00
(PID.TID 0000.0001) %MON exf_vwind_del2               =   2.3455439590663E-03
(PID.TID 0000.0001) %MON exf_wspeed_max               =   1.9790757342384E+01
(PID.TID 0000.0001) %MON exf_wspeed_min               =   1.3816087513313E-02
(PID.TID 0000.0001) %MON exf_wspeed_mean              =   1.0223298010005E+01
(PID.TID 0000.0001) %MON exf_wspeed_sd                =   4.0587871016428E+00
(PID.TID 0000.0001) %MON exf_wspeed_del2              =   3.3968357895917E-03
(PID.TID 0000.0001) %MON exf_atemp_max                =   2.9671331406528E+02
(PID.TID 0000.0001) %MON exf_atemp_min                =   2.7244203206891E+02
(PID.TID 0000.0001) %MON exf_atemp_mean               =   2.8880799489245E+02
(PID.TID 0000.0001) %MON exf_atemp_sd                 =   3.8022899516351E+00
(PID.TID 0000.0001) %MON exf_atemp_del2               =   4.8808461379183E-03
(PID.TID 0000.0001) %MON exf_aqh_max                  =   1.4296272516946E-02
(PID.TID 0000.0001) %MON exf_aqh_min                  =   2.1539156364906E-03
(PID.TID 0000.0001) %MON exf_aqh_mean                 =   7.7898326218441E-03
(PID.TID 0000.0001) %MON exf_aqh_sd                   =   2.1775232007253E-03
(PID.TID 0000.0001) %MON exf_aqh_del2                 =   2.4536243999519E-06
(PID.TID 0000.0001) %MON exf_lwflux_max               =   1.4008164349603E+02
(PID.TID 0000.0001) %MON exf_lwflux_min               =  -5.2575685276855E-01
(PID.TID 0000.0001) %MON exf_lwflux_mean              =   6.3300432796827E+01
(PID.TID 0000.0001) %MON exf_lwflux_sd                =   2.0332387001486E+01
(PID.TID 0000.0001) %MON exf_lwflux_del2              =   2.0445439855521E-02
(PID.TID 0000.0001) %MON exf_evap_max                 =   3.0583184053387E-07
(PID.TID 0000.0001) %MON exf_evap_min                 =  -2.0320050340249E-08
(PID.TID 0000.0001) %MON exf_evap_mean                =   8.3047374839324E-08
(PID.TID 0000.0001) %MON exf_evap_sd                  =   5.2830308783814E-08
(PID.TID 0000.0001) %MON exf_evap_del2                =   3.0375918564164E-11
(PID.TID 0000.0001) %MON exf_precip_max               =   1.1301740962553E-06
(PID.TID 0000.0001) %MON exf_precip_min               =   0.0000000000000E+00
(PID.TID 0000.0001) %MON exf_precip_mean              =   2.2896711564060E-08
(PID.TID 0000.0001) %MON exf_precip_sd                =   6.4698267996760E-08
(PID.TID 0000.0001) %MON exf_precip_del2              =   2.1139798229021E-11
(PID.TID 0000.0001) %MON exf_swflux_max               =   0.0000000000000E+00
(PID.TID 0000.0001) %MON exf_swflux_min               =  -1.4112910007642E+02
(PID.TID 0000.0001) %MON exf_swflux_mean              =  -5.9019183545820E+00
(PID.TID 0000.0001) %MON exf_swflux_sd                =   1.5073680496449E+01
(PID.TID 0000.0001) %MON exf_swflux_del2              =   4.8294140812962E-03
(PID.TID 0000.0001) %MON exf_swdown_max               =   1.5465224473476E+02
(PID.TID 0000.0001) %MON exf_swdown_min               =   0.0000000000000E+00
(PID.TID 0000.0001) %MON exf_swdown_mean              =   6.4856467861898E+00
(PID.TID 0000.0001) %MON exf_swdown_sd                =   1.6548699496562E+01
(PID.TID 0000.0001) %MON exf_swdown_del2              =   5.3036890044153E-03
(PID.TID 0000.0001) %MON exf_lwdown_max               =   4.1050803764547E+02
(PID.TID 0000.0001) %MON exf_lwdown_min               =   2.3978411009962E+02
(PID.TID 0000.0001) %MON exf_lwdown_mean              =   3.4053564810962E+02
(PID.TID 0000.0001) %MON exf_lwdown_sd                =   3.1969269926879E+01
(PID.TID 0000.0001) %MON exf_lwdown_del2              =   1.0420547915494E-01
(PID.TID 0000.0001) %MON exf_apressure_max            =   1.0282981426457E+05
(PID.TID 0000.0001) %MON exf_apressure_min            =   9.8518743163457E+04
(PID.TID 0000.0001) %MON exf_apressure_mean           =   1.0156880162355E+05
(PID.TID 0000.0001) %MON exf_apressure_sd             =   1.0043225812325E+03
(PID.TID 0000.0001) %MON exf_apressure_del2           =   3.1038149480814E+01
(PID.TID 0000.0001) %MON exf_runoff_max               =   4.6633690723924E-08
(PID.TID 0000.0001) %MON exf_runoff_min               =   0.0000000000000E+00
(PID.TID 0000.0001) %MON exf_runoff_mean              =   1.6070446344693E-09
(PID.TID 0000.0001) %MON exf_runoff_sd                =   5.4409705936606E-09
(PID.TID 0000.0001) %MON exf_runoff_del2              =   1.7602788524736E-12
(PID.TID 0000.0001) // =======================================================
(PID.TID 0000.0001) // End MONITOR EXF statistics
(PID.TID 0000.0001) // =======================================================
 cg2d: Sum(rhs),rhsMax =   6.12824625095134E+04  3.55924356906157E-02
 cg2d: Sum(rhs),rhsMax =   6.02211256703045E+04  3.49188306409072E-02
 cg2d: Sum(rhs),rhsMax =   5.91489128053096E+04  3.42458725026185E-02
 cg2d: Sum(rhs),rhsMax =   5.80659608733239E+04  3.35733372109222E-02
 cg2d: Sum(rhs),rhsMax =   5.69724082117407E+04  3.29009934686311E-02
 cg2d: Sum(rhs),rhsMax =   5.58683945182024E+04  3.22285998523507E-02
 cg2d: Sum(rhs),rhsMax =   5.47540608321955E+04  3.15559056944830E-02
 cg2d: Sum(rhs),rhsMax =   5.36295495163657E+04  3.08826557385789E-02
 cg2d: Sum(rhs),rhsMax =   5.24950042377969E+04  3.02085961183089E-02
 cg2d: Sum(rhs),rhsMax =   5.13505699489872E+04  2.95334803154785E-02
 cg2d: Sum(rhs),rhsMax =   5.01963928688115E+04  2.88570745738756E-02
 cg2d: Sum(rhs),rhsMax =   4.90326204631983E+04  2.81791624340422E-02
 cg2d: Sum(rhs),rhsMax =   4.78594014257679E+04  2.74995489119555E-02
 cg2d: Sum(rhs),rhsMax =   4.66768856582093E+04  2.68180626101789E-02
 cg2d: Sum(rhs),rhsMax =   4.54852242506341E+04  2.61345582311792E-02
 cg2d: Sum(rhs),rhsMax =   4.42845694616493E+04  2.54489187358541E-02
 cg2d: Sum(rhs),rhsMax =   4.30750746984264E+04  2.47610566152134E-02
 cg2d: Sum(rhs),rhsMax =   4.18568944965080E+04  2.40709131064942E-02
 cg2d: Sum(rhs),rhsMax =   4.06301844995882E+04  2.33784551350998E-02
 cg2d: Sum(rhs),rhsMax =   3.93951014390517E+04  2.26836697828009E-02
 cg2d: Sum(rhs),rhsMax =   3.81518031135041E+04  2.19865571503424E-02
 cg2d: Sum(rhs),rhsMax =   3.69004483680410E+04  2.12871227081127E-02
 cg2d: Sum(rhs),rhsMax =   3.56411970735286E+04  2.05853703560769E-02
 cg2d: Sum(rhs),rhsMax =   3.43742101056401E+04  1.98812971265742E-02
 cg2d: Sum(rhs),rhsMax =   3.30996493238812E+04  1.91748903139325E-02
 cg2d: Sum(rhs),rhsMax =   3.18176775503962E+04  1.84661275221419E-02
 cg2d: Sum(rhs),rhsMax =   3.05284585487761E+04  1.77549795562045E-02
 cg2d: Sum(rhs),rhsMax =   2.92321570026322E+04  1.70414156280030E-02
 cg2d: Sum(rhs),rhsMax =   2.79289384941860E+04  1.63254100060733E-02
 cg2d: Sum(rhs),rhsMax =   2.66189694826456E+04  1.56069491568549E-02
 cg2d: Sum(rhs),rhsMax =   2.53024172825786E+04  1.48860384880254E-02
 cg2d: Sum(rhs),rhsMax =   2.39794500420928E+04  1.41627079682623E-02
 cg2d: Sum(rhs),rhsMax =   2.26502367210244E+04  1.34370161062188E-02
 cg2d: Sum(rhs),rhsMax =   2.13149470689241E+04  1.27090520179558E-02
 cg2d: Sum(rhs),rhsMax =   1.99737516030623E+04  1.19789355529002E-02
 cg2d: Sum(rhs),rhsMax =   1.86268215862525E+04  1.12468156433523E-02
 cg2d: Sum(rhs),rhsMax =   1.72743290046754E+04  1.05128672190294E-02
 cg2d: Sum(rhs),rhsMax =   1.59164465455448E+04  9.77728714525993E-03
 cg2d: Sum(rhs),rhsMax =   1.45533475747806E+04  9.04028979597864E-03
 cg2d: Sum(rhs),rhsMax =   1.31852061145137E+04  8.30210291489767E-03
 cg2d: Sum(rhs),rhsMax =   1.18121968206163E+04  7.56296319972061E-03
 cg2d: Sum(rhs),rhsMax =   1.04344949600784E+04  6.82311309773864E-03
 cg2d: Sum(rhs),rhsMax =   9.05227638839180E+03  6.08279890268364E-03
 cg2d: Sum(rhs),rhsMax =   7.66571752680478E+03  5.34226991507117E-03
 cg2d: Sum(rhs),rhsMax =   6.27499533959225E+03  4.60177837502003E-03
(PID.TID 0000.0001)      cg2d_init_res =   1.07367683476421E+00
(PID.TID 0000.0001)      cg2d_iters(min,last) =      -1     154
(PID.TID 0000.0001)      cg2d_last_res =   1.82256445952520E-11
(PID.TID 0000.0001) // =======================================================
(PID.TID 0000.0001) // Begin MONITOR dynamic field statistics
(PID.TID 0000.0001) // =======================================================
(PID.TID 0000.0001) %MON time_tsnumber                =              15813315
(PID.TID 0000.0001) %MON time_secondsf                =   1.2650652000000E+09
(PID.TID 0000.0001) %MON dynstat_eta_max              =   1.3097915496310E+00
(PID.TID 0000.0001) %MON dynstat_eta_min              =  -2.8335108505763E+00
(PID.TID 0000.0001) %MON dynstat_eta_mean             =  -2.3714571245541E-02
(PID.TID 0000.0001) %MON dynstat_eta_sd               =   4.2855683229142E-01
(PID.TID 0000.0001) %MON dynstat_eta_del2             =   1.0861732857899E-06
(PID.TID 0000.0001) %MON dynstat_uvel_max             =   2.9871704606184E+00
(PID.TID 0000.0001) %MON dynstat_uvel_min             =  -3.0397134404648E+00
(PID.TID 0000.0001) %MON dynstat_uvel_mean            =  -9.2376104399947E-04
(PID.TID 0000.0001) %MON dynstat_uvel_sd              =   9.4004701789642E-02
(PID.TID 0000.0001) %MON dynstat_uvel_del2            =   1.9175530169394E-06
(PID.TID 0000.0001) %MON dynstat_vvel_max             =   2.5948269992491E+00
(PID.TID 0000.0001) %MON dynstat_vvel_min             =  -2.5948802485865E+00
(PID.TID 0000.0001) %MON dynstat_vvel_mean            =   9.3793363339190E-03
(PID.TID 0000.0001) %MON dynstat_vvel_sd              =   8.6348983668004E-02
(PID.TID 0000.0001) %MON dynstat_vvel_del2            =   1.8128687973342E-06
(PID.TID 0000.0001) %MON dynstat_wvel_max             =   4.9866604966765E-02
(PID.TID 0000.0001) %MON dynstat_wvel_min             =  -3.1982570165407E-02
(PID.TID 0000.0001) %MON dynstat_wvel_mean            =   3.8431966819546E-05
(PID.TID 0000.0001) %MON dynstat_wvel_sd              =   1.6837663667920E-03
(PID.TID 0000.0001) %MON dynstat_wvel_del2            =   9.8664529198223E-08
(PID.TID 0000.0001) %MON dynstat_theta_max            =   2.4972725321711E+01
(PID.TID 0000.0001) %MON dynstat_theta_min            =  -2.3846871759502E+00
(PID.TID 0000.0001) %MON dynstat_theta_mean           =   5.5818704924733E+00
(PID.TID 0000.0001) %MON dynstat_theta_sd             =   4.6733030318830E+00
(PID.TID 0000.0001) %MON dynstat_theta_del2           =   7.4566672867160E-06
(PID.TID 0000.0001) %MON dynstat_salt_max             =   8.9665250614580E+01
(PID.TID 0000.0001) %MON dynstat_salt_min             =   2.0158604529668E+00
(PID.TID 0000.0001) %MON dynstat_salt_mean            =   3.5191404938104E+01
(PID.TID 0000.0001) %MON dynstat_salt_sd              =   4.5282113969041E-01
(PID.TID 0000.0001) %MON dynstat_salt_del2            =   1.4798841786808E-06
(PID.TID 0000.0001) %MON dynstat_sst_max              =   2.4965200621892E+01
(PID.TID 0000.0001) %MON dynstat_sst_min              =  -2.3846871759502E+00
(PID.TID 0000.0001) %MON dynstat_sst_mean             =   1.7644791708196E+01
(PID.TID 0000.0001) %MON dynstat_sst_sd               =   3.3928334838809E+00
(PID.TID 0000.0001) %MON dynstat_sst_del2             =   9.1847693257277E-05
(PID.TID 0000.0001) %MON dynstat_sss_max              =   8.9665250614580E+01
(PID.TID 0000.0001) %MON dynstat_sss_min              =   2.0158604529668E+00
(PID.TID 0000.0001) %MON dynstat_sss_mean             =   3.6425167072931E+01
(PID.TID 0000.0001) %MON dynstat_sss_sd               =   4.5367724209207E-01
(PID.TID 0000.0001) %MON dynstat_sss_del2             =   1.6766310760675E-05
(PID.TID 0000.0001) %MON forcing_qnet_max             =   1.1817463810581E+03
(PID.TID 0000.0001) %MON forcing_qnet_min             =  -9.4091479022095E+01
(PID.TID 0000.0001) %MON forcing_qnet_mean            =   3.1056159708126E+02
(PID.TID 0000.0001) %MON forcing_qnet_sd              =   1.8825549771309E+02
(PID.TID 0000.0001) %MON forcing_qnet_del2            =   5.6784492761306E-03
(PID.TID 0000.0001) %MON forcing_qsw_max              =   0.0000000000000E+00
(PID.TID 0000.0001) %MON forcing_qsw_min              =  -2.9526456670283E+01
(PID.TID 0000.0001) %MON forcing_qsw_mean             =  -4.4194419658307E-01
(PID.TID 0000.0001) %MON forcing_qsw_sd               =   2.1167651097187E+00
(PID.TID 0000.0001) %MON forcing_qsw_del2             =   2.5627233866473E-06
(PID.TID 0000.0001) %MON forcing_empmr_max            =   2.6745827115165E-04
(PID.TID 0000.0001) %MON forcing_empmr_min            =  -1.0371060135777E-03
(PID.TID 0000.0001) %MON forcing_empmr_mean           =   5.9109434674304E-05
(PID.TID 0000.0001) %MON forcing_empmr_sd             =   8.6258660163371E-05
(PID.TID 0000.0001) %MON forcing_empmr_del2           =   1.4890306566009E-09
(PID.TID 0000.0001) %MON forcing_fu_max               =   8.7616288529084E-01
(PID.TID 0000.0001) %MON forcing_fu_min               =  -1.5564375173626E-01
(PID.TID 0000.0001) %MON forcing_fu_mean              =   1.2043156075763E-01
(PID.TID 0000.0001) %MON forcing_fu_sd                =   1.6979682063792E-01
(PID.TID 0000.0001) %MON forcing_fu_del2              =   9.8293771022456E-07
(PID.TID 0000.0001) %MON forcing_fv_max               =   5.1102967431499E-01
(PID.TID 0000.0001) %MON forcing_fv_min               =  -6.3083235808220E-01
(PID.TID 0000.0001) %MON forcing_fv_mean              =  -6.2247811354050E-02
(PID.TID 0000.0001) %MON forcing_fv_sd                =   1.5610828775034E-01
(PID.TID 0000.0001) %MON forcing_fv_del2              =   7.4201774761022E-07
(PID.TID 0000.0001) %MON trAdv_CFL_u_max              =   1.0175143639831E-01
(PID.TID 0000.0001) %MON trAdv_CFL_v_max              =   8.9636192999438E-02
(PID.TID 0000.0001) %MON trAdv_CFL_w_max              =   4.4154648917491E-01
(PID.TID 0000.0001) %MON advcfl_uvel_max              =   1.0175143583778E-01
(PID.TID 0000.0001) %MON advcfl_vvel_max              =   8.9625531631039E-02
(PID.TID 0000.0001) %MON advcfl_wvel_max              =   4.4614013897041E-01
(PID.TID 0000.0001) %MON advcfl_W_hf_max              =   4.5085892890183E-01
(PID.TID 0000.0001) %MON pe_b_mean                    =  -2.7817726036282E-04
(PID.TID 0000.0001) %MON ke_max                       =   4.6881976679354E+00
(PID.TID 0000.0001) %MON ke_mean                      =   8.1467318500342E-03
(PID.TID 0000.0001) %MON ke_vol                       =   4.6123795034297E+16
(PID.TID 0000.0001) %MON vort_r_min                   =  -1.4735164450650E-03
(PID.TID 0000.0001) %MON vort_r_max                   =   1.2216245773790E-03
(PID.TID 0000.0001) %MON vort_a_mean                  =   8.2145905336428E-05
(PID.TID 0000.0001) %MON vort_a_sd                    =   1.4057633227604E-05
(PID.TID 0000.0001) %MON vort_p_mean                  =   8.4437936160057E-05
(PID.TID 0000.0001) %MON vort_p_sd                    =   3.4003470026096E-05
(PID.TID 0000.0001) %MON surfExpan_theta_mean         =   1.1331147424759E-03
(PID.TID 0000.0001) %MON surfExpan_salt_mean          =   2.3930386857263E-03
(PID.TID 0000.0001) // =======================================================
(PID.TID 0000.0001) // End MONITOR dynamic field statistics
(PID.TID 0000.0001) // =======================================================
(PID.TID 0000.0001) // =======================================================
(PID.TID 0000.0001) // Begin OBCS MONITOR field statistics
(PID.TID 0000.0001) // =======================================================
(PID.TID 0000.0001) %MON obc_E_uVel_max               =  -3.7716368425823E-01
(PID.TID 0000.0001) %MON obc_E_uVel_min               =  -7.4355536935795E-01
(PID.TID 0000.0001) %MON obc_E_uVel_mean              =  -5.1355537898793E-01
(PID.TID 0000.0001) %MON obc_E_uVel_sd                =   6.9622617262305E-02
(PID.TID 0000.0001) %MON obc_E_uVel_Int               =  -3.5047334818578E+06
(PID.TID 0000.0001) %MON obc_N_vVel_max               =   5.0772119851553E-01
(PID.TID 0000.0001) %MON obc_N_vVel_min               =  -2.4869032754994E-01
(PID.TID 0000.0001) %MON obc_N_vVel_mean              =  -7.9416163282050E-03
(PID.TID 0000.0001) %MON obc_N_vVel_sd                =   3.7790843773441E-02
(PID.TID 0000.0001) %MON obc_N_vVel_Int               =  -1.1332404338027E+08
(PID.TID 0000.0001) %MON obc_S_vVel_max               =   1.2535887097451E+00
(PID.TID 0000.0001) %MON obc_S_vVel_min               =  -1.5179968861102E-01
(PID.TID 0000.0001) %MON obc_S_vVel_mean              =   2.0724833858862E-02
(PID.TID 0000.0001) %MON obc_S_vVel_sd                =   2.8097765278209E-02
(PID.TID 0000.0001) %MON obc_S_vVel_Int               =   6.3019741188268E+08
(PID.TID 0000.0001) %MON obc_E_theta_max              =   1.5981519699097E+01
(PID.TID 0000.0001) %MON obc_E_theta_min              =   1.3104037284851E+01
(PID.TID 0000.0001) %MON obc_E_theta_mean             =   1.4974089986960E+01
(PID.TID 0000.0001) %MON obc_E_theta_sd               =   6.0075505804650E-01
(PID.TID 0000.0001) %MON obc_N_theta_max              =   1.5721092224121E+01
(PID.TID 0000.0001) %MON obc_N_theta_min              =   9.7373789548874E-01
(PID.TID 0000.0001) %MON obc_N_theta_mean             =   5.3443110148828E+00
(PID.TID 0000.0001) %MON obc_N_theta_sd               =   3.5834807335781E+00
(PID.TID 0000.0001) %MON obc_S_theta_max              =   2.4979528427124E+01
(PID.TID 0000.0001) %MON obc_S_theta_min              =   1.5124862194061E+00
(PID.TID 0000.0001) %MON obc_S_theta_mean             =   5.4273114502690E+00
(PID.TID 0000.0001) %MON obc_S_theta_sd               =   5.1694562801555E+00
(PID.TID 0000.0001) %MON obc_E_salt_max               =   3.8703720092773E+01
(PID.TID 0000.0001) %MON obc_E_salt_min               =   3.6289142608643E+01
(PID.TID 0000.0001) %MON obc_E_salt_mean              =   3.6643778075730E+01
(PID.TID 0000.0001) %MON obc_E_salt_sd                =   5.5037722650442E-01
(PID.TID 0000.0001) %MON obc_N_salt_max               =   3.6066974639893E+01
(PID.TID 0000.0001) %MON obc_N_salt_min               =   3.2878395080566E+01
(PID.TID 0000.0001) %MON obc_N_salt_mean              =   3.5117165924185E+01
(PID.TID 0000.0001) %MON obc_N_salt_sd                =   3.1541903364831E-01
(PID.TID 0000.0001) %MON obc_S_salt_max               =   3.7600940704346E+01
(PID.TID 0000.0001) %MON obc_S_salt_min               =   3.4853485107422E+01
(PID.TID 0000.0001) %MON obc_S_salt_mean              =   3.5185630803177E+01
(PID.TID 0000.0001) %MON obc_S_salt_sd                =   4.9502018312198E-01
(PID.TID 0000.0001) // =======================================================
(PID.TID 0000.0001) // End OBCS MONITOR field statistics
(PID.TID 0000.0001) // =======================================================
(PID.TID 0000.0001) // =======================================================
(PID.TID 0000.0001) // Begin MONITOR ptracer field statistics
(PID.TID 0000.0001) // =======================================================
(PID.TID 0000.0001) %MON trcstat_ptracer01_max        =   0.0000000000000E+00
(PID.TID 0000.0001) %MON trcstat_ptracer01_min        =   0.0000000000000E+00
(PID.TID 0000.0001) %MON trcstat_ptracer01_mean       =   0.0000000000000E+00
(PID.TID 0000.0001) %MON trcstat_ptracer01_sd         =   0.0000000000000E+00
(PID.TID 0000.0001) %MON trcstat_ptracer01_del2       =   0.0000000000000E+00
(PID.TID 0000.0001) %MON trcstat_ptracer02_max        =   0.0000000000000E+00
(PID.TID 0000.0001) %MON trcstat_ptracer02_min        =   0.0000000000000E+00
(PID.TID 0000.0001) %MON trcstat_ptracer02_mean       =   0.0000000000000E+00
(PID.TID 0000.0001) %MON trcstat_ptracer02_sd         =   0.0000000000000E+00
(PID.TID 0000.0001) %MON trcstat_ptracer02_del2       =   0.0000000000000E+00
(PID.TID 0000.0001) // =======================================================
(PID.TID 0000.0001) // End MONITOR ptracer field statistics
(PID.TID 0000.0001) // =======================================================
(PID.TID 0000.0001) // =======================================================
(PID.TID 0000.0001) // Begin MONITOR EXF statistics
(PID.TID 0000.0001) // =======================================================
(PID.TID 0000.0001) %MON exf_tsnumber                 =              15813315
(PID.TID 0000.0001) %MON exf_time_sec                 =   1.2650652000000E+09
(PID.TID 0000.0001) %MON exf_ustress_max              =   8.7921570309235E-01
(PID.TID 0000.0001) %MON exf_ustress_min              =  -1.5557435357198E-01
(PID.TID 0000.0001) %MON exf_ustress_mean             =   1.2034028555945E-01
(PID.TID 0000.0001) %MON exf_ustress_sd               =   1.6990820444767E-01
(PID.TID 0000.0001) %MON exf_ustress_del2             =   1.0687731073829E-06
(PID.TID 0000.0001) %MON exf_vstress_max              =   5.1480418917497E-01
(PID.TID 0000.0001) %MON exf_vstress_min              =  -6.3240111365676E-01
(PID.TID 0000.0001) %MON exf_vstress_mean             =  -6.2226789533227E-02
(PID.TID 0000.0001) %MON exf_vstress_sd               =   1.5614078287032E-01
(PID.TID 0000.0001) %MON exf_vstress_del2             =   8.2588976798691E-07
(PID.TID 0000.0001) %MON exf_hflux_max                =   1.1656693800655E+03
(PID.TID 0000.0001) %MON exf_hflux_min                =  -5.4524721603611E+01
(PID.TID 0000.0001) %MON exf_hflux_mean               =   3.0607590996696E+02
(PID.TID 0000.0001) %MON exf_hflux_sd                 =   1.8396575575735E+02
(PID.TID 0000.0001) %MON exf_hflux_del2               =   1.1051616494852E-01
(PID.TID 0000.0001) %MON exf_sflux_max                =   2.6717428522305E-07
(PID.TID 0000.0001) %MON exf_sflux_min                =  -1.0294017162135E-06
(PID.TID 0000.0001) %MON exf_sflux_mean               =   5.9122815279192E-08
(PID.TID 0000.0001) %MON exf_sflux_sd                 =   8.6212868830123E-08
(PID.TID 0000.0001) %MON exf_sflux_del2               =   3.2182383006367E-11
(PID.TID 0000.0001) %MON exf_uwind_max                =   1.9748374837389E+01
(PID.TID 0000.0001) %MON exf_uwind_min                =  -8.3323611702413E+00
(PID.TID 0000.0001) %MON exf_uwind_mean               =   5.1133358690197E+00
(PID.TID 0000.0001) %MON exf_uwind_sd                 =   5.9880180179753E+00
(PID.TID 0000.0001) %MON exf_uwind_del2               =   2.4382405890799E-03
(PID.TID 0000.0001) %MON exf_vwind_max                =   1.6161788042430E+01
(PID.TID 0000.0001) %MON exf_vwind_min                =  -1.6763070438938E+01
(PID.TID 0000.0001) %MON exf_vwind_mean               =  -2.6816543512316E+00
(PID.TID 0000.0001) %MON exf_vwind_sd                 =   7.0722809381551E+00
(PID.TID 0000.0001) %MON exf_vwind_del2               =   2.3288189461136E-03
(PID.TID 0000.0001) %MON exf_wspeed_max               =   1.9936853748755E+01
(PID.TID 0000.0001) %MON exf_wspeed_min               =   1.7003794761415E-02
(PID.TID 0000.0001) %MON exf_wspeed_mean              =   1.0150531466931E+01
(PID.TID 0000.0001) %MON exf_wspeed_sd                =   4.0221514341855E+00
(PID.TID 0000.0001) %MON exf_wspeed_del2              =   3.3715065170839E-03
(PID.TID 0000.0001) %MON exf_atemp_max                =   2.9660896723361E+02
(PID.TID 0000.0001) %MON exf_atemp_min                =   2.7166403462795E+02
(PID.TID 0000.0001) %MON exf_atemp_mean               =   2.8881082314838E+02
(PID.TID 0000.0001) %MON exf_atemp_sd                 =   3.7360916909304E+00
(PID.TID 0000.0001) %MON exf_atemp_del2               =   4.8772998819033E-03
(PID.TID 0000.0001) %MON exf_aqh_max                  =   1.4207843464931E-02
(PID.TID 0000.0001) %MON exf_aqh_min                  =   2.2067246470694E-03
(PID.TID 0000.0001) %MON exf_aqh_mean                 =   7.7717540281664E-03
(PID.TID 0000.0001) %MON exf_aqh_sd                   =   2.1325134181023E-03
(PID.TID 0000.0001) %MON exf_aqh_del2                 =   2.4449154082058E-06
(PID.TID 0000.0001) %MON exf_lwflux_max               =   1.4467989021068E+02
(PID.TID 0000.0001) %MON exf_lwflux_min               =   1.7414043237161E+00
(PID.TID 0000.0001) %MON exf_lwflux_mean              =   6.3266924025314E+01
(PID.TID 0000.0001) %MON exf_lwflux_sd                =   2.0186471446319E+01
(PID.TID 0000.0001) %MON exf_lwflux_del2              =   2.0425988460505E-02
(PID.TID 0000.0001) %MON exf_evap_max                 =   2.9968938937861E-07
(PID.TID 0000.0001) %MON exf_evap_min                 =  -1.0027449408669E-08
(PID.TID 0000.0001) %MON exf_evap_mean                =   8.2744569861995E-08
(PID.TID 0000.0001) %MON exf_evap_sd                  =   5.2085441482479E-08
(PID.TID 0000.0001) %MON exf_evap_del2                =   3.0167159677170E-11
(PID.TID 0000.0001) %MON exf_precip_max               =   1.0706454214482E-06
(PID.TID 0000.0001) %MON exf_precip_min               =   0.0000000000000E+00
(PID.TID 0000.0001) %MON exf_precip_mean              =   2.2014709948334E-08
(PID.TID 0000.0001) %MON exf_precip_sd                =   6.2710443256714E-08
(PID.TID 0000.0001) %MON exf_precip_del2              =   2.0464087085805E-11
(PID.TID 0000.0001) %MON exf_swflux_max               =   0.0000000000000E+00
(PID.TID 0000.0001) %MON exf_swflux_min               =  -2.8270019214534E+01
(PID.TID 0000.0001) %MON exf_swflux_mean              =  -4.2313818117132E-01
(PID.TID 0000.0001) %MON exf_swflux_sd                =   2.0266905626528E+00
(PID.TID 0000.0001) %MON exf_swflux_del2              =   6.1169467787541E-04
(PID.TID 0000.0001) %MON exf_swdown_max               =   3.0970351578465E+01
(PID.TID 0000.0001) %MON exf_swdown_min               =   0.0000000000000E+00
(PID.TID 0000.0001) %MON exf_swdown_mean              =   4.6380800141523E-01
(PID.TID 0000.0001) %MON exf_swdown_sd                =   2.2206561688765E+00
(PID.TID 0000.0001) %MON exf_swdown_del2              =   6.7027768021897E-04
(PID.TID 0000.0001) %MON exf_lwdown_max               =   4.0991416887736E+02
(PID.TID 0000.0001) %MON exf_lwdown_min               =   2.3308233265407E+02
(PID.TID 0000.0001) %MON exf_lwdown_mean              =   3.4054734344516E+02
(PID.TID 0000.0001) %MON exf_lwdown_sd                =   3.2150993545877E+01
(PID.TID 0000.0001) %MON exf_lwdown_del2              =   1.0421274007677E-01
(PID.TID 0000.0001) %MON exf_apressure_max            =   1.0285524469698E+05
(PID.TID 0000.0001) %MON exf_apressure_min            =   9.8610343423455E+04
(PID.TID 0000.0001) %MON exf_apressure_mean           =   1.0160945378127E+05
(PID.TID 0000.0001) %MON exf_apressure_sd             =   9.9880310101667E+02
(PID.TID 0000.0001) %MON exf_apressure_del2           =   3.1050795965348E+01
(PID.TID 0000.0001) %MON exf_runoff_max               =   4.6633690723924E-08
(PID.TID 0000.0001) %MON exf_runoff_min               =   0.0000000000000E+00
(PID.TID 0000.0001) %MON exf_runoff_mean              =   1.6070446344693E-09
(PID.TID 0000.0001) %MON exf_runoff_sd                =   5.4409705936606E-09
(PID.TID 0000.0001) %MON exf_runoff_del2              =   1.7602788524736E-12
(PID.TID 0000.0001) // =======================================================
(PID.TID 0000.0001) // End MONITOR EXF statistics
(PID.TID 0000.0001) // =======================================================
 cg2d: Sum(rhs),rhsMax =   4.88028731118775E+03  3.86157989181580E-03
 cg2d: Sum(rhs),rhsMax =   3.48177142334211E+03  3.12199920788024E-03
 cg2d: Sum(rhs),rhsMax =   2.07962613216382E+03  2.38334035166659E-03
 cg2d: Sum(rhs),rhsMax =   6.74030345171727E+02  2.94668077625217E-03
 cg2d: Sum(rhs),rhsMax =  -7.34836601755521E+02  3.65374977635180E-03
 cg2d: Sum(rhs),rhsMax =  -2.14679496740168E+03  4.35871998757940E-03
 cg2d: Sum(rhs),rhsMax =  -3.56166462835136E+03  5.06140148439389E-03
 cg2d: Sum(rhs),rhsMax =  -4.97926510208781E+03  5.76157955283086E-03
 cg2d: Sum(rhs),rhsMax =  -6.39941557018504E+03  6.45900743791479E-03
 cg2d: Sum(rhs),rhsMax =  -7.82193490147987E+03  7.15340161937564E-03
 cg2d: Sum(rhs),rhsMax =  -9.24664167531549E+03  7.84444073416906E-03
 cg2d: Sum(rhs),rhsMax =  -1.06733542047533E+04  8.53176704392729E-03
 cg2d: Sum(rhs),rhsMax =  -1.21018905598697E+04  9.21499643968494E-03
 cg2d: Sum(rhs),rhsMax =  -1.35320685910069E+04  9.89372730164856E-03
 cg2d: Sum(rhs),rhsMax =  -1.49637059520893E+04  1.05675571340580E-02
 cg2d: Sum(rhs),rhsMax =  -1.63966201239120E+04  1.12360960685526E-02
 cg2d: Sum(rhs),rhsMax =  -1.78306284374693E+04  1.18989849866195E-02
 cg2d: Sum(rhs),rhsMax =  -1.92655480972537E+04  1.25559082596529E-02
 cg2d: Sum(rhs),rhsMax =  -2.07011962046015E+04  1.32066065172532E-02
 cg2d: Sum(rhs),rhsMax =  -2.21373897809911E+04  1.38508822551061E-02
 cg2d: Sum(rhs),rhsMax =  -2.35739457913748E+04  1.44886020186617E-02
 cg2d: Sum(rhs),rhsMax =  -2.50106811674818E+04  1.51196908721362E-02
 cg2d: Sum(rhs),rhsMax =  -2.64474128311264E+04  1.57441225230306E-02
 cg2d: Sum(rhs),rhsMax =  -2.78839577174830E+04  1.63619048435422E-02
 cg2d: Sum(rhs),rhsMax =  -2.93201327983825E+04  1.69730640880291E-02
 cg2d: Sum(rhs),rhsMax =  -3.07557551055477E+04  1.75776279629405E-02
 cg2d: Sum(rhs),rhsMax =  -3.21906417538397E+04  1.81756082502592E-02
 cg2d: Sum(rhs),rhsMax =  -3.36246099644677E+04  1.87669938928040E-02
 cg2d: Sum(rhs),rhsMax =  -3.50574770881766E+04  1.93517383178924E-02
 cg2d: Sum(rhs),rhsMax =  -3.64890606283935E+04  1.99297518551706E-02
 cg2d: Sum(rhs),rhsMax =  -3.79191782643668E+04  2.05008990010287E-02
 cg2d: Sum(rhs),rhsMax =  -3.93476478742419E+04  2.10650002254632E-02
 cg2d: Sum(rhs),rhsMax =  -4.07742875581199E+04  2.16218374216973E-02
 cg2d: Sum(rhs),rhsMax =  -4.21989156610658E+04  2.21711616909318E-02
 cg2d: Sum(rhs),rhsMax =  -4.36213507960789E+04  2.27127025608175E-02
 cg2d: Sum(rhs),rhsMax =  -4.50414118670063E+04  2.32461777686712E-02
 cg2d: Sum(rhs),rhsMax =  -4.64589180914285E+04  2.37713029117863E-02
 cg2d: Sum(rhs),rhsMax =  -4.78736890234686E+04  2.42878005240296E-02
 cg2d: Sum(rhs),rhsMax =  -4.92855445765654E+04  2.47954081859963E-02
 cg2d: Sum(rhs),rhsMax =  -5.06943050461823E+04  2.52938856045170E-02
 cg2d: Sum(rhs),rhsMax =  -5.20997911324597E+04  2.57830207076356E-02
 cg2d: Sum(rhs),rhsMax =  -5.35018239627947E+04  2.62626348284837E-02
 cg2d: Sum(rhs),rhsMax =  -5.49002251143778E+04  2.67325864952449E-02
 cg2d: Sum(rhs),rhsMax =  -5.62948166366351E+04  2.71927739418543E-02
 cg2d: Sum(rhs),rhsMax =  -5.76854210736210E+04  2.76443299172977E-02
(PID.TID 0000.0001)      cg2d_init_res =   1.18302954439721E+00
(PID.TID 0000.0001)      cg2d_iters(min,last) =      -1     154
(PID.TID 0000.0001)      cg2d_last_res =   1.99959001136860E-11
(PID.TID 0000.0001) // =======================================================
(PID.TID 0000.0001) // Begin MONITOR dynamic field statistics
(PID.TID 0000.0001) // =======================================================
(PID.TID 0000.0001) %MON time_tsnumber                =              15813360
(PID.TID 0000.0001) %MON time_secondsf                =   1.2650688000000E+09
(PID.TID 0000.0001) %MON dynstat_eta_max              =   1.4654662148785E+00
(PID.TID 0000.0001) %MON dynstat_eta_min              =  -2.4134321921871E+00
(PID.TID 0000.0001) %MON dynstat_eta_mean             =   2.1800574404384E-01
(PID.TID 0000.0001) %MON dynstat_eta_sd               =   3.5103986863080E-01
(PID.TID 0000.0001) %MON dynstat_eta_del2             =   1.1443464941823E-06
(PID.TID 0000.0001) %MON dynstat_uvel_max             =   2.9775345219647E+00
(PID.TID 0000.0001) %MON dynstat_uvel_min             =  -3.0714843577143E+00
(PID.TID 0000.0001) %MON dynstat_uvel_mean            =   8.0558563386473E-03
(PID.TID 0000.0001) %MON dynstat_uvel_sd              =   9.4199090931841E-02
(PID.TID 0000.0001) %MON dynstat_uvel_del2            =   1.9057110030293E-06
(PID.TID 0000.0001) %MON dynstat_vvel_max             =   2.5750384095432E+00
(PID.TID 0000.0001) %MON dynstat_vvel_min             =  -2.5503722209088E+00
(PID.TID 0000.0001) %MON dynstat_vvel_mean            =   1.4773036328609E-02
(PID.TID 0000.0001) %MON dynstat_vvel_sd              =   8.6336613762746E-02
(PID.TID 0000.0001) %MON dynstat_vvel_del2            =   1.8024852269870E-06
(PID.TID 0000.0001) %MON dynstat_wvel_max             =   4.3929902986546E-02
(PID.TID 0000.0001) %MON dynstat_wvel_min             =  -2.9998571037368E-02
(PID.TID 0000.0001) %MON dynstat_wvel_mean            =   3.9212773855626E-05
(PID.TID 0000.0001) %MON dynstat_wvel_sd              =   1.6896549730586E-03
(PID.TID 0000.0001) %MON dynstat_wvel_del2            =   9.8860623929107E-08
(PID.TID 0000.0001) %MON dynstat_theta_max            =   2.4972252282977E+01
(PID.TID 0000.0001) %MON dynstat_theta_min            =  -2.3932686600575E+00
(PID.TID 0000.0001) %MON dynstat_theta_mean           =   5.5811348042766E+00
(PID.TID 0000.0001) %MON dynstat_theta_sd             =   4.6724162462842E+00
(PID.TID 0000.0001) %MON dynstat_theta_del2           =   7.4588810143273E-06
(PID.TID 0000.0001) %MON dynstat_salt_max             =   8.9666587237761E+01
(PID.TID 0000.0001) %MON dynstat_salt_min             =   2.0158606466456E+00
(PID.TID 0000.0001) %MON dynstat_salt_mean            =   3.5191336216723E+01
(PID.TID 0000.0001) %MON dynstat_salt_sd              =   4.5273183515953E-01
(PID.TID 0000.0001) %MON dynstat_salt_del2            =   1.4772653264962E-06
(PID.TID 0000.0001) %MON dynstat_sst_max              =   2.4964182779202E+01
(PID.TID 0000.0001) %MON dynstat_sst_min              =  -2.3932686600575E+00
(PID.TID 0000.0001) %MON dynstat_sst_mean             =   1.7641433422744E+01
(PID.TID 0000.0001) %MON dynstat_sst_sd               =   3.3913392481916E+00
(PID.TID 0000.0001) %MON dynstat_sst_del2             =   9.2215646309170E-05
(PID.TID 0000.0001) %MON dynstat_sss_max              =   8.9666587237761E+01
(PID.TID 0000.0001) %MON dynstat_sss_min              =   2.0158606466456E+00
(PID.TID 0000.0001) %MON dynstat_sss_mean             =   3.6425116574176E+01
(PID.TID 0000.0001) %MON dynstat_sss_sd               =   4.5368612592946E-01
(PID.TID 0000.0001) %MON dynstat_sss_del2             =   1.6878049622189E-05
(PID.TID 0000.0001) %MON forcing_qnet_max             =   1.1073658044513E+03
(PID.TID 0000.0001) %MON forcing_qnet_min             =  -7.4463047796420E+01
(PID.TID 0000.0001) %MON forcing_qnet_mean            =   3.0889651232070E+02
(PID.TID 0000.0001) %MON forcing_qnet_sd              =   1.8372209653795E+02
(PID.TID 0000.0001) %MON forcing_qnet_del2            =   5.6828908222871E-03
(PID.TID 0000.0001) %MON forcing_qsw_max              =   0.0000000000000E+00
(PID.TID 0000.0001) %MON forcing_qsw_min              =  -8.9538326381447E-06
(PID.TID 0000.0001) %MON forcing_qsw_mean             =  -1.4996947393664E-11
(PID.TID 0000.0001) %MON forcing_qsw_sd               =   8.8453929252307E-09
(PID.TID 0000.0001) %MON forcing_qsw_del2             =   3.9503945687013E-12
(PID.TID 0000.0001) %MON forcing_empmr_max            =   2.6378689716433E-04
(PID.TID 0000.0001) %MON forcing_empmr_min            =  -9.7109307885086E-04
(PID.TID 0000.0001) %MON forcing_empmr_mean           =   5.8637241099902E-05
(PID.TID 0000.0001) %MON forcing_empmr_sd             =   8.5805538344324E-05
(PID.TID 0000.0001) %MON forcing_empmr_del2           =   1.4780710332405E-09
(PID.TID 0000.0001) %MON forcing_fu_max               =   8.8229464287733E-01
(PID.TID 0000.0001) %MON forcing_fu_min               =  -1.5978395500355E-01
(PID.TID 0000.0001) %MON forcing_fu_mean              =   1.1525678612021E-01
(PID.TID 0000.0001) %MON forcing_fu_sd                =   1.6687107731621E-01
(PID.TID 0000.0001) %MON forcing_fu_del2              =   9.7061426378844E-07
(PID.TID 0000.0001) %MON forcing_fv_max               =   4.9140334529305E-01
(PID.TID 0000.0001) %MON forcing_fv_min               =  -6.1672471790367E-01
(PID.TID 0000.0001) %MON forcing_fv_mean              =  -6.1468281283016E-02
(PID.TID 0000.0001) %MON forcing_fv_sd                =   1.5152636835815E-01
(PID.TID 0000.0001) %MON forcing_fv_del2              =   7.2988654444540E-07
(PID.TID 0000.0001) %MON trAdv_CFL_u_max              =   1.0281493680029E-01
(PID.TID 0000.0001) %MON trAdv_CFL_v_max              =   8.8929599976071E-02
(PID.TID 0000.0001) %MON trAdv_CFL_w_max              =   3.5405474203508E-01
(PID.TID 0000.0001) %MON advcfl_uvel_max              =   1.0281493623390E-01
(PID.TID 0000.0001) %MON advcfl_vvel_max              =   8.8940206990814E-02
(PID.TID 0000.0001) %MON advcfl_wvel_max              =   3.5661325453290E-01
(PID.TID 0000.0001) %MON advcfl_W_hf_max              =   3.5939929558394E-01
(PID.TID 0000.0001) %MON pe_b_mean                    =   5.5661550410705E-03
(PID.TID 0000.0001) %MON ke_max                       =   4.7116331592400E+00
(PID.TID 0000.0001) %MON ke_mean                      =   8.2604564190681E-03
(PID.TID 0000.0001) %MON ke_vol                       =   4.6123795034297E+16
(PID.TID 0000.0001) %MON vort_r_min                   =  -1.9127755316033E-03
(PID.TID 0000.0001) %MON vort_r_max                   =   1.7869966094489E-03
(PID.TID 0000.0001) %MON vort_a_mean                  =   8.2145907041403E-05
(PID.TID 0000.0001) %MON vort_a_sd                    =   1.4095356848415E-05
(PID.TID 0000.0001) %MON vort_p_mean                  =   8.4437937912604E-05
(PID.TID 0000.0001) %MON vort_p_sd                    =   3.4071915835222E-05
(PID.TID 0000.0001) %MON surfExpan_theta_mean         =   1.1019812774536E-03
(PID.TID 0000.0001) %MON surfExpan_salt_mean          =   2.3907340252130E-03
(PID.TID 0000.0001) // =======================================================
(PID.TID 0000.0001) // End MONITOR dynamic field statistics
(PID.TID 0000.0001) // =======================================================
(PID.TID 0000.0001) // =======================================================
(PID.TID 0000.0001) // Begin OBCS MONITOR field statistics
(PID.TID 0000.0001) // =======================================================
(PID.TID 0000.0001) %MON obc_E_uVel_max               =  -3.7915750859772E-01
(PID.TID 0000.0001) %MON obc_E_uVel_min               =  -7.5034467428408E-01
(PID.TID 0000.0001) %MON obc_E_uVel_mean              =  -5.1969091465090E-01
(PID.TID 0000.0001) %MON obc_E_uVel_sd                =   7.0049010455170E-02
(PID.TID 0000.0001) %MON obc_E_uVel_Int               =  -3.5466051438965E+06
(PID.TID 0000.0001) %MON obc_N_vVel_max               =   7.4566080000063E-01
(PID.TID 0000.0001) %MON obc_N_vVel_min               =  -2.4913208824029E-01
(PID.TID 0000.0001) %MON obc_N_vVel_mean              =  -3.5446071890868E-04
(PID.TID 0000.0001) %MON obc_N_vVel_sd                =   3.7100638432424E-02
(PID.TID 0000.0001) %MON obc_N_vVel_Int               =  -5.0580285204091E+06
(PID.TID 0000.0001) %MON obc_S_vVel_max               =   1.2461571459702E+00
(PID.TID 0000.0001) %MON obc_S_vVel_min               =  -1.5299529107142E-01
(PID.TID 0000.0001) %MON obc_S_vVel_mean              =   2.4281840773445E-02
(PID.TID 0000.0001) %MON obc_S_vVel_sd                =   2.9078425623133E-02
(PID.TID 0000.0001) %MON obc_S_vVel_Int               =   7.3835830556631E+08
(PID.TID 0000.0001) %MON obc_E_theta_max              =   1.5981519699097E+01
(PID.TID 0000.0001) %MON obc_E_theta_min              =   1.3104037284851E+01
(PID.TID 0000.0001) %MON obc_E_theta_mean             =   1.4974089986960E+01
(PID.TID 0000.0001) %MON obc_E_theta_sd               =   6.0075505804650E-01
(PID.TID 0000.0001) %MON obc_N_theta_max              =   1.5721092224121E+01
(PID.TID 0000.0001) %MON obc_N_theta_min              =   9.7373789548874E-01
(PID.TID 0000.0001) %MON obc_N_theta_mean             =   5.3443110148828E+00
(PID.TID 0000.0001) %MON obc_N_theta_sd               =   3.5834807335781E+00
(PID.TID 0000.0001) %MON obc_S_theta_max              =   2.4979528427124E+01
(PID.TID 0000.0001) %MON obc_S_theta_min              =   1.5124862194061E+00
(PID.TID 0000.0001) %MON obc_S_theta_mean             =   5.4273114502690E+00
(PID.TID 0000.0001) %MON obc_S_theta_sd               =   5.1694562801555E+00
(PID.TID 0000.0001) %MON obc_E_salt_max               =   3.8703720092773E+01
(PID.TID 0000.0001) %MON obc_E_salt_min               =   3.6289142608643E+01
(PID.TID 0000.0001) %MON obc_E_salt_mean              =   3.6643778075730E+01
(PID.TID 0000.0001) %MON obc_E_salt_sd                =   5.5037722650442E-01
(PID.TID 0000.0001) %MON obc_N_salt_max               =   3.6066974639893E+01
(PID.TID 0000.0001) %MON obc_N_salt_min               =   3.2878395080566E+01
(PID.TID 0000.0001) %MON obc_N_salt_mean              =   3.5117165924185E+01
(PID.TID 0000.0001) %MON obc_N_salt_sd                =   3.1541903364831E-01
(PID.TID 0000.0001) %MON obc_S_salt_max               =   3.7600940704346E+01
(PID.TID 0000.0001) %MON obc_S_salt_min               =   3.4853485107422E+01
(PID.TID 0000.0001) %MON obc_S_salt_mean              =   3.5185630803177E+01
(PID.TID 0000.0001) %MON obc_S_salt_sd                =   4.9502018312198E-01
(PID.TID 0000.0001) // =======================================================
(PID.TID 0000.0001) // End OBCS MONITOR field statistics
(PID.TID 0000.0001) // =======================================================
(PID.TID 0000.0001) // =======================================================
(PID.TID 0000.0001) // Begin MONITOR ptracer field statistics
(PID.TID 0000.0001) // =======================================================
(PID.TID 0000.0001) %MON trcstat_ptracer01_max        =   0.0000000000000E+00
(PID.TID 0000.0001) %MON trcstat_ptracer01_min        =   0.0000000000000E+00
(PID.TID 0000.0001) %MON trcstat_ptracer01_mean       =   0.0000000000000E+00
(PID.TID 0000.0001) %MON trcstat_ptracer01_sd         =   0.0000000000000E+00
(PID.TID 0000.0001) %MON trcstat_ptracer01_del2       =   0.0000000000000E+00
(PID.TID 0000.0001) %MON trcstat_ptracer02_max        =   0.0000000000000E+00
(PID.TID 0000.0001) %MON trcstat_ptracer02_min        =   0.0000000000000E+00
(PID.TID 0000.0001) %MON trcstat_ptracer02_mean       =   0.0000000000000E+00
(PID.TID 0000.0001) %MON trcstat_ptracer02_sd         =   0.0000000000000E+00
(PID.TID 0000.0001) %MON trcstat_ptracer02_del2       =   0.0000000000000E+00
(PID.TID 0000.0001) // =======================================================
(PID.TID 0000.0001) // End MONITOR ptracer field statistics
(PID.TID 0000.0001) // =======================================================
(PID.TID 0000.0001) %CHECKPOINT  15813360 ckptA
(PID.TID 0000.0001)   Seconds in section "ALL                    [THE_MODEL_MAIN]":
(PID.TID 0000.0001)           User time:   2337.75713729858
(PID.TID 0000.0001)         System time:  0.000000000000000E+000
(PID.TID 0000.0001)     Wall clock time:   2714.15549492836
(PID.TID 0000.0001)          No. starts:           1
(PID.TID 0000.0001)           No. stops:           1
(PID.TID 0000.0001)   Seconds in section "INITIALISE_FIXED       [THE_MODEL_MAIN]":
(PID.TID 0000.0001)           User time:   187.763698577881
(PID.TID 0000.0001)         System time:  0.000000000000000E+000
(PID.TID 0000.0001)     Wall clock time:   209.269754171371
(PID.TID 0000.0001)          No. starts:           1
(PID.TID 0000.0001)           No. stops:           1
(PID.TID 0000.0001)   Seconds in section "THE_MAIN_LOOP          [THE_MODEL_MAIN]":
(PID.TID 0000.0001)           User time:   2149.99343872070
(PID.TID 0000.0001)         System time:  0.000000000000000E+000
(PID.TID 0000.0001)     Wall clock time:   2504.88569211960
(PID.TID 0000.0001)          No. starts:           1
(PID.TID 0000.0001)           No. stops:           1
(PID.TID 0000.0001)   Seconds in section "INITIALISE_VARIA    [THE_MAIN_LOOP]":
(PID.TID 0000.0001)           User time:   76.6767272949219
(PID.TID 0000.0001)         System time:  0.000000000000000E+000
(PID.TID 0000.0001)     Wall clock time:   116.068166971207
(PID.TID 0000.0001)          No. starts:           1
(PID.TID 0000.0001)           No. stops:           1
(PID.TID 0000.0001)   Seconds in section "MAIN LOOP           [THE_MAIN_LOOP]":
(PID.TID 0000.0001)           User time:   2073.31668090820
(PID.TID 0000.0001)         System time:  0.000000000000000E+000
(PID.TID 0000.0001)     Wall clock time:   2388.81748509407
(PID.TID 0000.0001)          No. starts:           1
(PID.TID 0000.0001)           No. stops:           1
(PID.TID 0000.0001)   Seconds in section "MAIN_DO_LOOP        [THE_MAIN_LOOP]":
(PID.TID 0000.0001)           User time:   2073.30541992188
(PID.TID 0000.0001)         System time:  0.000000000000000E+000
(PID.TID 0000.0001)     Wall clock time:   2388.80703258514
(PID.TID 0000.0001)          No. starts:        2160
(PID.TID 0000.0001)           No. stops:        2160
(PID.TID 0000.0001)   Seconds in section "FORWARD_STEP        [MAIN_DO_LOOP]":
(PID.TID 0000.0001)           User time:   2073.28347778320
(PID.TID 0000.0001)         System time:  0.000000000000000E+000
(PID.TID 0000.0001)     Wall clock time:   2388.76859855652
(PID.TID 0000.0001)          No. starts:        2160
(PID.TID 0000.0001)           No. stops:        2160
(PID.TID 0000.0001)   Seconds in section "DO_STATEVARS_DIAGS  [FORWARD_STEP]":
(PID.TID 0000.0001)           User time:  0.144073486328125
(PID.TID 0000.0001)         System time:  0.000000000000000E+000
(PID.TID 0000.0001)     Wall clock time:   2.53488063812256
(PID.TID 0000.0001)          No. starts:        6480
(PID.TID 0000.0001)           No. stops:        6480
(PID.TID 0000.0001)   Seconds in section "LOAD_FIELDS_DRIVER  [FORWARD_STEP]":
(PID.TID 0000.0001)           User time:   149.386108398438
(PID.TID 0000.0001)         System time:  0.000000000000000E+000
(PID.TID 0000.0001)     Wall clock time:   226.277229785919
(PID.TID 0000.0001)          No. starts:        2160
(PID.TID 0000.0001)           No. stops:        2160
(PID.TID 0000.0001)   Seconds in section "EXF_GETFORCING     [LOAD_FLDS_DRIVER]":
(PID.TID 0000.0001)           User time:   149.338378906250
(PID.TID 0000.0001)         System time:  0.000000000000000E+000
(PID.TID 0000.0001)     Wall clock time:   225.887226343155
(PID.TID 0000.0001)          No. starts:        2160
(PID.TID 0000.0001)           No. stops:        2160
(PID.TID 0000.0001)   Seconds in section "EXTERNAL_FLDS_LOAD [LOAD_FLDS_DRIVER]":
(PID.TID 0000.0001)           User time:  1.242065429687500E-002
(PID.TID 0000.0001)         System time:  0.000000000000000E+000
(PID.TID 0000.0001)     Wall clock time:  1.188778877258301E-002
(PID.TID 0000.0001)          No. starts:        2160
(PID.TID 0000.0001)           No. stops:        2160
(PID.TID 0000.0001)   Seconds in section "DO_ATMOSPHERIC_PHYS [FORWARD_STEP]":
(PID.TID 0000.0001)           User time:  1.177978515625000E-002
(PID.TID 0000.0001)         System time:  0.000000000000000E+000
(PID.TID 0000.0001)     Wall clock time:  1.152276992797852E-002
(PID.TID 0000.0001)          No. starts:        2160
(PID.TID 0000.0001)           No. stops:        2160
(PID.TID 0000.0001)   Seconds in section "DO_OCEANIC_PHYS     [FORWARD_STEP]":
(PID.TID 0000.0001)           User time:   167.355346679688
(PID.TID 0000.0001)         System time:  0.000000000000000E+000
(PID.TID 0000.0001)     Wall clock time:   171.630331039429
(PID.TID 0000.0001)          No. starts:        2160
(PID.TID 0000.0001)           No. stops:        2160
(PID.TID 0000.0001)   Seconds in section "KPP_CALC [DO_OCEANIC_PHYS]":
(PID.TID 0000.0001)           User time:   27.6576538085938
(PID.TID 0000.0001)         System time:  0.000000000000000E+000
(PID.TID 0000.0001)     Wall clock time:   28.7510592937469
(PID.TID 0000.0001)          No. starts:        2160
(PID.TID 0000.0001)           No. stops:        2160
(PID.TID 0000.0001)   Seconds in section "DYNAMICS            [FORWARD_STEP]":
(PID.TID 0000.0001)           User time:   30.1051025390625
(PID.TID 0000.0001)         System time:  0.000000000000000E+000
(PID.TID 0000.0001)     Wall clock time:   30.3533935546875
(PID.TID 0000.0001)          No. starts:        2160
(PID.TID 0000.0001)           No. stops:        2160
(PID.TID 0000.0001)   Seconds in section "UPDATE_SURF_DR      [FORWARD_STEP]":
(PID.TID 0000.0001)           User time:   1.26489257812500
(PID.TID 0000.0001)         System time:  0.000000000000000E+000
(PID.TID 0000.0001)     Wall clock time:   1.27980351448059
(PID.TID 0000.0001)          No. starts:        2160
(PID.TID 0000.0001)           No. stops:        2160
(PID.TID 0000.0001)   Seconds in section "SOLVE_FOR_PRESSURE  [FORWARD_STEP]":
(PID.TID 0000.0001)           User time:   531.247283935547
(PID.TID 0000.0001)         System time:  0.000000000000000E+000
(PID.TID 0000.0001)     Wall clock time:   531.440940856934
(PID.TID 0000.0001)          No. starts:        2160
(PID.TID 0000.0001)           No. stops:        2160
(PID.TID 0000.0001)   Seconds in section "MOM_CORRECTION_STEP [FORWARD_STEP]":
(PID.TID 0000.0001)           User time:   2.24746704101562
(PID.TID 0000.0001)         System time:  0.000000000000000E+000
(PID.TID 0000.0001)     Wall clock time:   2.25018358230591
(PID.TID 0000.0001)          No. starts:        2160
(PID.TID 0000.0001)           No. stops:        2160
(PID.TID 0000.0001)   Seconds in section "INTEGR_CONTINUITY   [FORWARD_STEP]":
(PID.TID 0000.0001)           User time:   3.29949951171875
(PID.TID 0000.0001)         System time:  0.000000000000000E+000
(PID.TID 0000.0001)     Wall clock time:   3.31188631057739
(PID.TID 0000.0001)          No. starts:        2160
(PID.TID 0000.0001)           No. stops:        2160
(PID.TID 0000.0001)   Seconds in section "BLOCKING_EXCHANGES  [FORWARD_STEP]":
(PID.TID 0000.0001)           User time:   114.922149658203
(PID.TID 0000.0001)         System time:  0.000000000000000E+000
(PID.TID 0000.0001)     Wall clock time:   115.566610097885
(PID.TID 0000.0001)          No. starts:        4320
(PID.TID 0000.0001)           No. stops:        4320
(PID.TID 0000.0001)   Seconds in section "THERMODYNAMICS      [FORWARD_STEP]":
(PID.TID 0000.0001)           User time:   63.4967041015625
(PID.TID 0000.0001)         System time:  0.000000000000000E+000
(PID.TID 0000.0001)     Wall clock time:   71.8077900409698
(PID.TID 0000.0001)          No. starts:        2160
(PID.TID 0000.0001)           No. stops:        2160
(PID.TID 0000.0001)   Seconds in section "TRC_CORRECTION_STEP [FORWARD_STEP]":
(PID.TID 0000.0001)           User time:  1.669311523437500E-002
(PID.TID 0000.0001)         System time:  0.000000000000000E+000
(PID.TID 0000.0001)     Wall clock time:  1.501059532165527E-002
(PID.TID 0000.0001)          No. starts:        2160
(PID.TID 0000.0001)           No. stops:        2160
(PID.TID 0000.0001)   Seconds in section "MONITOR             [FORWARD_STEP]":
(PID.TID 0000.0001)           User time:   26.4373168945312
(PID.TID 0000.0001)         System time:  0.000000000000000E+000
(PID.TID 0000.0001)     Wall clock time:   42.6071665287018
(PID.TID 0000.0001)          No. starts:        2160
(PID.TID 0000.0001)           No. stops:        2160
(PID.TID 0000.0001)   Seconds in section "DO_THE_MODEL_IO     [FORWARD_STEP]":
(PID.TID 0000.0001)           User time:   946.899627685547
(PID.TID 0000.0001)         System time:  0.000000000000000E+000
(PID.TID 0000.0001)     Wall clock time:   1129.66045975685
(PID.TID 0000.0001)          No. starts:        2160
(PID.TID 0000.0001)           No. stops:        2160
(PID.TID 0000.0001)   Seconds in section "PTRACERS_RESET      [FORWARD_STEP]":
(PID.TID 0000.0001)           User time:  1.068115234375000E-002
(PID.TID 0000.0001)         System time:  0.000000000000000E+000
(PID.TID 0000.0001)     Wall clock time:  0.119759798049927
(PID.TID 0000.0001)          No. starts:        2160
(PID.TID 0000.0001)           No. stops:        2160
(PID.TID 0000.0001)   Seconds in section "DO_WRITE_PICKUP     [FORWARD_STEP]":
(PID.TID 0000.0001)           User time:   36.1488647460938
(PID.TID 0000.0001)         System time:  0.000000000000000E+000
(PID.TID 0000.0001)     Wall clock time:   57.8608648777008
(PID.TID 0000.0001)          No. starts:        2160
(PID.TID 0000.0001)           No. stops:        2160
(PID.TID 0000.0001) // ======================================================
(PID.TID 0000.0001) // Tile <-> Tile communication statistics
(PID.TID 0000.0001) // ======================================================
(PID.TID 0000.0001) // o Tile number: 000001
(PID.TID 0000.0001) //         No. X exchanges =              0
(PID.TID 0000.0001) //            Max. X spins =              0
(PID.TID 0000.0001) //            Min. X spins =     1000000000
(PID.TID 0000.0001) //          Total. X spins =              0
(PID.TID 0000.0001) //            Avg. X spins =       0.00E+00
(PID.TID 0000.0001) //         No. Y exchanges =              0
(PID.TID 0000.0001) //            Max. Y spins =              0
(PID.TID 0000.0001) //            Min. Y spins =     1000000000
(PID.TID 0000.0001) //          Total. Y spins =              0
(PID.TID 0000.0001) //            Avg. Y spins =       0.00E+00
(PID.TID 0000.0001) // o Thread number: 000001
(PID.TID 0000.0001) //            No. barriers =        4286484
(PID.TID 0000.0001) //      Max. barrier spins =              1
(PID.TID 0000.0001) //      Min. barrier spins =              1
(PID.TID 0000.0001) //     Total barrier spins =        4286484
(PID.TID 0000.0001) //      Avg. barrier spins =       1.00E+00
PROGRAM MAIN: Execution ended Normally
